version 2
run WithBeaconing-0-20200331-14:49:18-8529
attr configname WithBeaconing
attr datetime 20200331-14:49:18
attr experiment WithBeaconing
attr inifile omnetpp.ini
attr iterationvars ""
attr iterationvarsf ""
attr measurement ""
attr network veins_myproject.src.Scenario
attr processid 8529
attr repetition 0
attr replication #0
attr resultdir results
attr runnumber 0
attr seedset 0
param *.rsu[*].appl.sendBeacons true
param *.node[*].appl.sendBeacons true
param **.debug false
param **.coreDebug false
param *.playgroundSizeX 6000m
param *.playgroundSizeY 6000m
param *.playgroundSizeZ 3m
param *.annotations.draw true
param *.manager.updateInterval 1s
param *.manager.host "\"localhost\""
param *.manager.port 9999
param *.manager.moduleType "\"veins_myproject.src.car.MyCar\""
param *.manager.autoShutdown true
param *.manager.launchConfig "xmldoc(\"sumo.launchd.xml\")"
param *.rsu[0].mobility.x 289
param *.rsu[0].mobility.y 432
param *.rsu[0].mobility.z 3
param *.rsu[*].applType "\"veins_myproject.src.MyRSUApp\""
param *.rsu[*].appl.headerLength "80 bit"
param *.rsu[*].appl.sendBeacons true
param *.rsu[*].appl.dataOnSch true
param *.rsu[*].appl.beaconInterval 1s
param *.rsu[*].appl.beaconUserPriority 7
param *.rsu[*].appl.dataUserPriority 5
param *.connectionManager.sendDirect true
param *.connectionManager.maxInterfDist 2600m
param *.connectionManager.drawMaxIntfDist false
param *.**.nic.mac1609_4.useServiceChannel false
param *.**.nic.mac1609_4.txPower 50mW
param *.**.nic.mac1609_4.bitrate 6Mbps
param *.**.nic.phy80211p.sensitivity -89dBm
param *.**.nic.phy80211p.useThermalNoise true
param *.**.nic.phy80211p.thermalNoise -110dBm
param *.**.nic.phy80211p.decider "xmldoc(\"config.xml\")"
param *.**.nic.phy80211p.analogueModels "xmldoc(\"config.xml\")"
param *.**.nic.phy80211p.usePropagationDelay true
param *.node[*].applType "\"veins_myproject.src.MyApplicaton\""
param *.node[*].appl.headerLength "80 bit"
param *.node[*].appl.sendBeacons true
param *.node[*].appl.dataOnSch false
param *.node[*].appl.beaconInterval 0.1s
param *.node[*].veinsmobilityType.debug true
param *.node[*].veinsmobility.x 0
param *.node[*].veinsmobility.y 0
param *.node[*].veinsmobility.z 1.895

vector 0 Scenario.node[0].veinsmobility posx ETV
vector 1 Scenario.node[0].veinsmobility posy ETV
vector 2 Scenario.node[1].veinsmobility posx ETV
vector 3 Scenario.node[1].veinsmobility posy ETV
vector 4 Scenario.node[0].veinsmobility speed ETV
vector 5 Scenario.node[2].veinsmobility posx ETV
vector 6 Scenario.node[2].veinsmobility posy ETV
vector 7 Scenario.node[0].veinsmobility acceleration ETV
vector 8 Scenario.node[0].veinsmobility co2emission ETV
vector 9 Scenario.node[1].veinsmobility speed ETV
vector 10 Scenario.node[3].veinsmobility posx ETV
vector 11 Scenario.node[3].veinsmobility posy ETV
vector 12 Scenario.node[1].veinsmobility acceleration ETV
vector 13 Scenario.node[1].veinsmobility co2emission ETV
vector 14 Scenario.node[2].veinsmobility speed ETV
vector 15 Scenario.node[4].veinsmobility posx ETV
vector 16 Scenario.node[4].veinsmobility posy ETV
vector 17 Scenario.node[2].veinsmobility acceleration ETV
vector 18 Scenario.node[2].veinsmobility co2emission ETV
vector 19 Scenario.node[3].veinsmobility speed ETV
vector 20 Scenario.node[5].veinsmobility posx ETV
vector 21 Scenario.node[5].veinsmobility posy ETV
vector 22 Scenario.node[3].veinsmobility acceleration ETV
vector 23 Scenario.node[3].veinsmobility co2emission ETV
vector 24 Scenario.node[4].veinsmobility speed ETV
vector 25 Scenario.node[6].veinsmobility posx ETV
vector 26 Scenario.node[6].veinsmobility posy ETV
vector 27 Scenario.node[4].veinsmobility acceleration ETV
vector 28 Scenario.node[4].veinsmobility co2emission ETV
vector 29 Scenario.node[5].veinsmobility speed ETV
vector 30 Scenario.node[7].veinsmobility posx ETV
vector 31 Scenario.node[7].veinsmobility posy ETV
vector 32 Scenario.node[5].veinsmobility acceleration ETV
vector 33 Scenario.node[5].veinsmobility co2emission ETV
vector 34 Scenario.node[6].veinsmobility speed ETV
vector 35 Scenario.node[8].veinsmobility posx ETV
vector 36 Scenario.node[8].veinsmobility posy ETV
vector 37 Scenario.node[6].veinsmobility acceleration ETV
vector 38 Scenario.node[6].veinsmobility co2emission ETV
vector 39 Scenario.node[7].veinsmobility speed ETV
vector 40 Scenario.node[9].veinsmobility posx ETV
vector 41 Scenario.node[9].veinsmobility posy ETV
vector 42 Scenario.node[7].veinsmobility acceleration ETV
vector 43 Scenario.node[7].veinsmobility co2emission ETV
vector 44 Scenario.node[8].veinsmobility speed ETV
vector 45 Scenario.node[10].veinsmobility posx ETV
vector 46 Scenario.node[10].veinsmobility posy ETV
vector 47 Scenario.node[8].veinsmobility acceleration ETV
vector 48 Scenario.node[8].veinsmobility co2emission ETV
vector 49 Scenario.node[9].veinsmobility speed ETV
vector 50 Scenario.node[11].veinsmobility posx ETV
vector 51 Scenario.node[11].veinsmobility posy ETV
vector 52 Scenario.node[9].veinsmobility acceleration ETV
vector 53 Scenario.node[9].veinsmobility co2emission ETV
vector 54 Scenario.node[10].veinsmobility speed ETV
vector 55 Scenario.node[12].veinsmobility posx ETV
vector 56 Scenario.node[12].veinsmobility posy ETV
vector 57 Scenario.node[10].veinsmobility acceleration ETV
vector 58 Scenario.node[10].veinsmobility co2emission ETV
vector 59 Scenario.node[11].veinsmobility speed ETV
vector 60 Scenario.node[13].veinsmobility posx ETV
vector 61 Scenario.node[13].veinsmobility posy ETV
vector 62 Scenario.node[11].veinsmobility acceleration ETV
vector 63 Scenario.node[11].veinsmobility co2emission ETV
vector 64 Scenario.node[12].veinsmobility speed ETV
vector 65 Scenario.node[12].veinsmobility acceleration ETV
vector 66 Scenario.node[12].veinsmobility co2emission ETV
vector 67 Scenario.node[13].veinsmobility speed ETV
vector 68 Scenario.node[14].veinsmobility posx ETV
vector 69 Scenario.node[14].veinsmobility posy ETV
vector 70 Scenario.node[13].veinsmobility acceleration ETV
vector 71 Scenario.node[13].veinsmobility co2emission ETV
vector 72 Scenario.node[15].veinsmobility posx ETV
vector 73 Scenario.node[15].veinsmobility posy ETV
vector 74 Scenario.node[16].veinsmobility posx ETV
vector 75 Scenario.node[16].veinsmobility posy ETV
vector 76 Scenario.node[14].veinsmobility speed ETV
vector 77 Scenario.node[17].veinsmobility posx ETV
vector 78 Scenario.node[17].veinsmobility posy ETV
vector 79 Scenario.node[14].veinsmobility acceleration ETV
vector 80 Scenario.node[14].veinsmobility co2emission ETV
vector 81 Scenario.node[15].veinsmobility speed ETV
vector 82 Scenario.node[16].veinsmobility speed ETV
vector 83 Scenario.node[18].veinsmobility posx ETV
vector 84 Scenario.node[18].veinsmobility posy ETV
vector 85 Scenario.node[15].veinsmobility acceleration ETV
vector 86 Scenario.node[15].veinsmobility co2emission ETV
vector 87 Scenario.node[16].veinsmobility acceleration ETV
vector 88 Scenario.node[16].veinsmobility co2emission ETV
vector 89 Scenario.node[17].veinsmobility speed ETV
vector 90 Scenario.node[19].veinsmobility posx ETV
vector 91 Scenario.node[19].veinsmobility posy ETV
vector 92 Scenario.node[17].veinsmobility acceleration ETV
vector 93 Scenario.node[17].veinsmobility co2emission ETV
vector 94 Scenario.node[18].veinsmobility speed ETV
vector 95 Scenario.node[18].veinsmobility acceleration ETV
vector 96 Scenario.node[18].veinsmobility co2emission ETV
vector 97 Scenario.node[19].veinsmobility speed ETV
vector 98 Scenario.node[20].veinsmobility posx ETV
vector 99 Scenario.node[20].veinsmobility posy ETV
vector 100 Scenario.node[19].veinsmobility acceleration ETV
vector 101 Scenario.node[19].veinsmobility co2emission ETV
vector 102 Scenario.node[21].veinsmobility posx ETV
vector 103 Scenario.node[21].veinsmobility posy ETV
vector 104 Scenario.node[22].veinsmobility posx ETV
vector 105 Scenario.node[22].veinsmobility posy ETV
vector 106 Scenario.node[20].veinsmobility speed ETV
vector 107 Scenario.node[23].veinsmobility posx ETV
vector 108 Scenario.node[23].veinsmobility posy ETV
vector 109 Scenario.node[20].veinsmobility acceleration ETV
vector 110 Scenario.node[20].veinsmobility co2emission ETV
vector 111 Scenario.node[21].veinsmobility speed ETV
vector 112 Scenario.node[22].veinsmobility speed ETV
vector 113 Scenario.node[24].veinsmobility posx ETV
vector 114 Scenario.node[24].veinsmobility posy ETV
vector 115 Scenario.node[21].veinsmobility acceleration ETV
vector 116 Scenario.node[21].veinsmobility co2emission ETV
vector 117 Scenario.node[22].veinsmobility acceleration ETV
vector 118 Scenario.node[22].veinsmobility co2emission ETV
vector 119 Scenario.node[23].veinsmobility speed ETV
vector 120 Scenario.node[25].veinsmobility posx ETV
vector 121 Scenario.node[25].veinsmobility posy ETV
vector 122 Scenario.node[23].veinsmobility acceleration ETV
vector 123 Scenario.node[23].veinsmobility co2emission ETV
vector 124 Scenario.node[24].veinsmobility speed ETV
vector 125 Scenario.node[26].veinsmobility posx ETV
vector 126 Scenario.node[26].veinsmobility posy ETV
vector 127 Scenario.node[24].veinsmobility acceleration ETV
vector 128 Scenario.node[24].veinsmobility co2emission ETV
vector 129 Scenario.node[25].veinsmobility speed ETV
vector 130 Scenario.node[27].veinsmobility posx ETV
vector 131 Scenario.node[27].veinsmobility posy ETV
vector 132 Scenario.node[25].veinsmobility acceleration ETV
vector 133 Scenario.node[25].veinsmobility co2emission ETV
vector 134 Scenario.node[26].veinsmobility speed ETV
vector 135 Scenario.node[28].veinsmobility posx ETV
vector 136 Scenario.node[28].veinsmobility posy ETV
vector 137 Scenario.node[26].veinsmobility acceleration ETV
vector 138 Scenario.node[26].veinsmobility co2emission ETV
vector 139 Scenario.node[27].veinsmobility speed ETV
vector 140 Scenario.node[29].veinsmobility posx ETV
vector 141 Scenario.node[29].veinsmobility posy ETV
vector 142 Scenario.node[27].veinsmobility acceleration ETV
vector 143 Scenario.node[27].veinsmobility co2emission ETV
vector 144 Scenario.node[28].veinsmobility speed ETV
vector 145 Scenario.node[28].veinsmobility acceleration ETV
vector 146 Scenario.node[28].veinsmobility co2emission ETV
vector 147 Scenario.node[29].veinsmobility speed ETV
147	600541	31	4.2645360358269
141	543652	30	375.01949671172
141	600541	31	375.01949671172
140	543652	30	440.89903636064
140	600541	31	440.89903636064
43	21162	10	4.4822274931433
43	28063	11	5.6487336548341
43	36314	12	1.5691826264666
43	46035	13	1.5894807653425
43	57346	14	1.6540666384896
43	70367	15	0.973
43	83388	16	0.973
43	98239	17	0.973
43	117110	18	5.1803702375419
43	138171	19	5.0673676760376
43	161542	20	1.5802543869952
43	187343	21	1.4502553507983
43	213144	22	1.5371225481737
43	241495	23	1.7384569170149
43	275306	24	1.4492118322524
43	312027	25	0.973
43	351778	26	0.973
43	394679	27	0.973
43	441020	28	5.1423720788029
43	490581	29	5.102752662051
43	543652	30	0.973
43	600541	31	0.973
43	657242	32	2.7491834133013
43	710495	33	4.9731772493598
43	763566	34	3.9409181638835
43	816637	35	1.4314445680851
43	869708	36	1.5757487462337
43	922961	37	1.6203806755307
43	976214	38	1.5328619971519
43	1029285	39	1.4420484766118
43	1082356	40	1.6815432616601
42	21162	10	2.0429412387311
42	28063	11	2.0556603328705
42	36314	12	0.0044361023535018
42	46035	13	0.014134623438585
42	57346	14	0.044779220405035
42	70367	15	-0.73709895263875
42	83388	16	-2.7809994068853
42	98239	17	-0.68861057727489
42	117110	18	2.3844130951818
42	138171	19	1.7624908173183
42	161542	20	0.0096923144231553
42	187343	21	-0.054095749941188
42	213144	22	-0.0098821266135207
42	241495	23	0.088036140599289
42	275306	24	-0.05524425487034
42	312027	25	-0.52545620681378
42	351778	26	-2.7737679224429
42	394679	27	-0.78164438892057
42	441020	28	2.3543362270971
42	490581	29	1.7738528731412
42	543652	30	-1.910095234616
42	600541	31	-2.4019499753939
42	657242	32	1.1247929352485
42	710495	33	2.0300868068356
42	763566	34	1.1865832340791
42	816637	35	-0.064513859255241
42	869708	36	0.0078168445942008
42	922961	37	0.029162746556102
42	976214	38	-0.014218561067246
42	1029285	39	-0.058233404769561
42	1082356	40	0.060295239235273
39	15491	9	4.1544468571006
39	21162	10	6.1973880958317
39	28063	11	8.2530484287022
39	36314	12	8.2574845310557
39	46035	13	8.2716191544943
39	57346	14	8.3163983748993
39	70367	15	7.5792994222605
39	83388	16	4.7983000153752
39	98239	17	4.1096894381003
39	117110	18	6.4941025332821
39	138171	19	8.2565933506005
39	161542	20	8.2662856650236
39	187343	21	8.2121899150824
39	213144	22	8.2023077884689
39	241495	23	8.2903439290682
39	275306	24	8.2350996741978
39	312027	25	7.7096434673841
39	351778	26	4.9358755449412
39	394679	27	4.1542311560206
39	441020	28	6.5085673831177
39	490581	29	8.2824202562589
39	543652	30	6.372325021643
39	600541	31	3.970375046249
39	657242	32	5.0951679814976
39	710495	33	7.1252547883332
39	763566	34	8.3118380224123
39	816637	35	8.247324163157
39	869708	36	8.2551410077512
39	922961	37	8.2843037543073
39	976214	38	8.2700851932401
39	1029285	39	8.2118517884705
39	1082356	40	8.2721470277058
31	10930	8	157.6201144067
31	15491	9	157.6201144067
31	21162	10	160.81461553888
31	28063	11	166.03812035387
31	36314	12	173.4311460902
31	46035	13	181.69508982857
31	57346	14	189.95498694106
31	70367	15	198.20137855275
31	83388	16	206.34504184848
31	98239	17	212.3576378017
31	117110	18	216.25821910095
31	138171	19	220.91382159211
31	161542	20	214.13968012159
31	187343	21	205.86090265029
31	213144	22	197.62216887403
31	241495	23	189.35944597035
31	275306	24	181.11980430128
31	312027	25	172.85078067433
31	351778	26	164.67749814728
31	394679	27	158.54208904674
31	441020	28	154.54779167122
31	490581	29	149.0067854982
31	543652	30	141.31267008584
31	600541	31	133.77262499784
31	657242	32	128.79499243335
31	710495	33	124.73231581371
31	763566	34	120.81531819456
31	816637	35	120.96253571569
31	869708	36	121.11430143182
31	922961	37	121.2662079082
31	976214	38	121.41820782303
31	1029285	39	121.57787030134
31	1082356	40	121.72916536345
30	10930	8	175.41894504961
30	15491	9	175.41894504961
30	21162	10	175.54741686622
30	28063	11	175.75748821222
30	36314	12	176.05481020626
30	46035	13	176.38715751824
30	57346	14	176.71934208889
30	70367	15	177.05098351488
30	83388	16	177.37849356235
30	98239	17	177.62029943209
30	117110	18	177.77495053058
30	138171	19	179.56178208017
30	161542	20	180.99680433523
30	187343	21	180.66391195315
30	213144	22	180.3326297413
30	241495	23	180.0003829187
30	275306	24	179.66906420018
30	312027	25	179.3365640234
30	351778	26	179.00791362795
30	394679	27	178.76120679743
30	441020	28	178.600594778
30	490581	29	178.40762456555
30	543652	30	178.25066537012
30	600541	31	178.17850735292
30	657242	32	178.13227547152
30	710495	33	178.09715970592
30	763566	34	181.49944927757
30	816637	35	189.51194387041
30	869708	36	197.77197956804
30	922961	37	206.03967631512
30	976214	38	214.31245856499
30	1029285	39	222.56971845318
30	1082356	40	230.83042884414
143	543652	30	0.973
143	600541	31	0.973
143	657242	32	0.973
143	710495	33	0.973
143	763566	34	2.8662076511949
143	816637	35	3.9809699869182
143	869708	36	4.4466444243863
143	922961	37	4.7308064599264
143	976214	38	1.592375976472
143	1029285	39	1.3779803452916
143	1082356	40	1.8070548885009
143	1135427	41	1.4775977799815
143	1184988	42	0.973
143	1234549	43	0.973
143	1284110	44	4.9589155840272
143	1333671	45	4.5078597576423
143	1383232	46	2.9880025710048
143	1432793	47	1.5269075207775
142	543652	30	-0.1212181562048
142	600541	31	-0.4369122036919
142	657242	32	0
142	710495	33	0
142	763566	34	2.6
142	816637	35	2.2480483153043
142	869708	36	1.8497386964946
142	922961	37	1.5869834739086
142	976214	38	0.014601523098536
142	1029285	39	-0.090537708997728
142	1082356	40	0.12048892330145
142	1135427	41	-0.042427297674585
142	1184988	42	-2.5431237528568
142	1234549	43	-2.3972944176695
142	1284110	44	2.5125070105586
142	1333671	45	1.6546498764586
142	1383232	46	0.72024614426177
142	1432793	47	-0.015561381306034
139	490581	29	0.5581303598967
139	543652	30	0.4369122036919
139	600541	31	0
139	657242	32	0
139	710495	33	0
139	763566	34	2.6
139	816637	35	4.8480483153043
139	869708	36	6.6977870117989
139	922961	37	8.2847704857076
139	976214	38	8.2993720088061
139	1029285	39	8.2088342998084
139	1082356	40	8.3293232231098
139	1135427	41	8.2868959254352
139	1184988	42	5.7437721725785
139	1234549	43	3.346477754909
139	1284110	44	5.8589847654676
139	1333671	45	7.5136346419262
139	1383232	46	8.2338807861879
139	1432793	47	8.2183194048819
131	441020	28	124.69890235561
131	490581	29	124.69890235561
131	543652	30	125.29281850431
131	600541	31	125.49274890476
131	657242	32	125.52517170898
131	710495	33	125.52517170898
131	763566	34	125.52517170898
131	816637	35	124.80748689519
131	869708	36	121.39265277116
131	922961	37	120.87640481616
131	976214	38	121.01783244182
131	1029285	39	121.16975584421
131	1082356	40	121.3213711814
131	1135427	41	121.4779890632
131	1184988	42	121.6328301346
131	1234549	43	121.76042319569
131	1284110	44	121.84031953854
131	1333671	45	121.69520157543
131	1383232	46	118.57630275381
131	1432793	47	118.4268070657
130	441020	28	175.31510404773
130	490581	29	175.31510404773
130	543652	30	175.89887648433
130	600541	31	176.30361363647
130	657242	32	176.369250045
130	710495	33	176.369250045
130	763566	34	176.369250045
130	816637	35	177.50194849192
130	869708	36	179.00711139602
130	922961	37	184.8241637647
130	976214	38	192.52153617768
130	1029285	39	200.79015414373
130	1082356	40	209.0420052828
130	1135427	41	217.30945315985
130	1184988	42	225.57052534943
130	1234549	43	232.53710648465
130	1284110	44	236.89944680415
130	1333671	45	241.6012475384
130	1383232	46	238.92413035779
130	1432793	47	230.76166578736
71	83388	16	3.5275987558441
71	98239	17	4.4536551008681
71	117110	18	5.0851943573616
71	138171	19	1.5901098256008
71	161542	20	1.5503003329231
71	187343	21	1.6016111484632
71	213144	22	0.973
71	241495	23	0.973
71	275306	24	0.973
71	312027	25	0.973
71	351778	26	4.4220737907083
71	394679	27	5.2393183553333
71	441020	28	2.5145464290233
71	490581	29	1.5627236098254
71	543652	30	1.4859996964281
71	600541	31	1.5955981399716
71	657242	32	1.7213898702242
71	710495	33	1.555855079032
71	763566	34	1.4107008577104
71	816637	35	1.5162791395914
71	869708	36	1.8100024762401
71	922961	37	1.4976585311663
71	976214	38	1.4091785259029
71	1029285	39	1.5538592559567
71	1082356	40	1.7545072914434
71	1135427	41	1.4580405295887
71	1184988	42	1.5548903756373
71	1234549	43	1.4904722140396
71	1284110	44	1.7083029090262
71	1333671	45	1.4343111187331
71	1383232	46	1.6146090134647
71	1432793	47	1.4530666838272
71	1482354	48	1.7429312294243
71	1528525	49	1.5089599269125
71	1574696	50	1.4571781213976
70	83388	16	1.9814989528782
70	98239	17	1.9182818804961
70	117110	18	1.768597944302
70	138171	19	0.01407639661463
70	161542	20	-0.0056807435746311
70	187343	21	0.019346023062244
70	213144	22	-1.265329253112
70	241495	23	-0.35224129889488
70	275306	24	-0.72053029881129
70	312027	25	-2.3555704848962
70	351778	26	2.1685742838851
70	394679	27	1.985769208807
70	441020	28	0.48129144759454
70	490581	29	0.0017974348203271
70	543652	30	-0.035788356303238
70	600541	31	0.01895939784823
70	657242	32	0.079000195998233
70	710495	33	-0.0036170097626744
70	763566	34	-0.074368681423366
70	816637	35	-0.020458237223794
70	869708	36	0.12214340982027
70	922961	37	-0.032561446821784
70	976214	38	-0.074992009412963
70	1029285	39	-0.0018769974843593
70	1082356	40	0.095128796473146
70	1135427	41	-0.051473424122669
70	1184988	42	-0.0027283614664331
70	1234549	43	-0.034092382155359
70	1284110	44	0.072720989673398
70	1333671	45	-0.062694612145425
70	1383232	46	0.027167242348661
70	1432793	47	-0.05254720124416
70	1482354	48	0.089957913209219
70	1528525	49	-0.026245999338572
70	1574696	50	-0.050824938141741
67	70367	15	2.5997155518631
67	83388	16	4.5812145047413
67	98239	17	6.4994963852374
67	117110	18	8.2680943295394
67	138171	19	8.282170726154
67	161542	20	8.2764899825794
67	187343	21	8.2958360056416
67	213144	22	7.0305067525296
67	241495	23	6.6782654536347
67	275306	24	5.9577351548234
67	312027	25	3.6021646699272
67	351778	26	5.7707389538123
67	394679	27	7.7565081626193
67	441020	28	8.2377996102138
67	490581	29	8.2395970450342
67	543652	30	8.2038086887309
67	600541	31	8.2227680865792
67	657242	32	8.3017682825774
67	710495	33	8.2981512728147
67	763566	34	8.2237825913914
67	816637	35	8.2033243541676
67	869708	36	8.3254677639878
67	922961	37	8.2929063171661
67	976214	38	8.2179143077531
67	1029285	39	8.2160373102687
67	1082356	40	8.3111661067419
67	1135427	41	8.2596926826192
67	1184988	42	8.2569643211528
67	1234549	43	8.2228719389974
67	1284110	44	8.2955929286708
67	1333671	45	8.2328983165254
67	1383232	46	8.260065558874
67	1432793	47	8.2075183576299
67	1482354	48	8.2974762708391
67	1528525	49	8.2712302715005
67	1574696	50	8.2204053333588
61	57346	14	307.67517117367
61	70367	15	307.67517117367
61	83388	16	309.39357061741
61	98239	17	313.07593168233
61	117110	18	318.68466249203
61	138171	19	326.13580740913
61	161542	20	334.36040828728
61	187343	21	342.59810113527
61	213144	22	350.83743432099
61	241495	23	358.61274370878
61	275306	24	365.13969260762
61	312027	25	371.82236484485
61	351778	26	376.44566423786
61	394679	27	381.02834051341
61	441020	28	387.8245007888
61	490581	29	395.98141712992
61	543652	30	404.16607803538
61	600541	31	412.34693682159
61	657242	32	420.53666523966
61	710495	33	428.7140190217
61	763566	34	436.90501394557
61	816637	35	445.0908775259
61	869708	36	453.24758894811
61	922961	37	461.41920432768
61	976214	38	469.59280009767
61	1029285	39	477.7414690266
61	1082356	40	485.71021224808
61	1135427	41	493.70958066854
61	1184988	42	501.69583182314
61	1234549	43	509.68859708526
61	1284110	44	517.67087498826
61	1333671	45	525.65927848802
61	1383232	46	533.62946890831
61	1432793	47	541.59850979692
61	1482354	48	549.57728168976
61	1528525	49	557.56869224464
61	1574696	50	565.55272183066
60	57346	14	174.99855810473
60	70367	15	174.99855810473
60	83388	16	174.84474332935
60	98239	17	174.51513338788
60	117110	18	174.01309314757
60	138171	19	173.34613751862
60	161542	20	172.60994946799
60	187343	21	171.87258954873
60	213144	22	171.13508280204
60	241495	23	170.43911105264
60	275306	24	169.8548806617
60	312027	25	169.2567113985
60	351778	26	168.84287760668
60	394679	27	168.43268000999
60	441020	28	167.67128119411
60	490581	29	166.62391472705
60	543652	30	165.50293865557
60	600541	31	164.33151302731
60	657242	32	163.13631154497
60	710495	33	161.94291600572
60	763566	34	160.74749207985
60	816637	35	159.55280794508
60	869708	36	158.36237841588
60	922961	37	157.16977373176
60	976214	38	155.97688001998
60	1029285	39	154.70136494167
60	1082356	40	152.55845586746
60	1135427	41	150.40731123904
60	1184988	42	148.2596940311
60	1234549	43	146.11032508645
60	1284110	44	143.96377634271
60	1333671	45	141.81558033836
60	1383232	46	139.67228209168
60	1432793	47	137.52929297053
60	1482354	48	135.38368704309
60	1528525	49	133.23468239859
60	1574696	50	131.08766260223
66	70367	15	4.0028335785405
66	83388	16	5.0426474593659
66	98239	17	6.1967149067509
66	117110	18	7.2633253166398
66	138171	19	0.973
66	161542	20	0.973
66	187343	21	1.6439242187541
66	213144	22	1.5046945887367
66	241495	23	1.6577633561269
66	275306	24	1.3959127381187
66	312027	25	1.6827084377773
66	351778	26	1.4237113536516
66	394679	27	1.5766091601743
66	441020	28	1.5456890618909
66	490581	29	1.6630416647004
66	543652	30	1.4390654261919
66	600541	31	1.6905008049853
66	657242	32	1.5597077662071
66	710495	33	1.6430855597204
66	763566	34	0.973
66	816637	35	2.6401581072768
66	869708	36	1.9985446756597
66	922961	37	1.6959113054015
66	976214	38	0.973
66	1029285	39	0.973
66	1082356	40	0.973
66	1135427	41	4.9361285996077
66	1184988	42	5.3575744076732
66	1234549	43	1.6180204665008
66	1284110	44	0.973
66	1333671	45	0.973
66	1383232	46	2.8891911814705
66	1432793	47	5.491556207375
66	1482354	48	3.1152024708445
66	1528525	49	1.3785056107712
66	1574696	50	1.6938936344012
65	70367	15	1.7743449039338
65	83388	16	1.8461391854403
65	98239	17	1.9168750083912
65	117110	18	1.9248667729949
65	138171	19	-2.5069233797514
65	161542	20	-0.96812637425261
65	187343	21	0.040732502737082
65	213144	22	-0.028104925535153
65	241495	23	0.046918814077507
65	275306	24	-0.081906262491829
65	312027	25	0.060260868123732
65	351778	26	-0.067695694533176
65	394679	27	0.0091696738800966
65	441020	28	-0.0062166687357248
65	490581	29	0.050962500013412
65	543652	30	-0.059788887740579
65	600541	31	0.064536944283173
65	657242	32	-0.00098872699309105
65	710495	33	0.03929600324016
65	763566	34	-0.88003421851423
65	816637	35	0.56843519403219
65	869708	36	0.22204007102312
65	922961	37	0.066607598597185
65	976214	38	-0.75518360507211
65	1029285	39	-2.6606440110311
65	1082356	40	-0.87157426167387
65	1135427	41	2.3015228573163
65	1184988	42	1.916857392651
65	1234549	43	0.029119644130114
65	1284110	44	-1.6344512595046
65	1333671	45	-2.4675767530024
65	1383232	46	1.1749412960575
65	1432793	47	2.1952213671245
65	1482354	48	0.77614111751469
65	1528525	49	-0.090246020676569
65	1574696	50	0.066408917827065
64	57346	14	4.2621588970209
64	70367	15	6.0365038009547
64	83388	16	7.8826429863949
64	98239	17	9.7995179947861
64	117110	18	11.724384767781
64	138171	19	9.2174613880296
64	161542	20	8.249335013777
64	187343	21	8.2900675165141
64	213144	22	8.2619625909789
64	241495	23	8.3088814050565
64	275306	24	8.2269751425646
64	312027	25	8.2872360106884
64	351778	26	8.2195403161552
64	394679	27	8.2287099900353
64	441020	28	8.2224933212996
64	490581	29	8.273455821313
64	543652	30	8.2136669335724
64	600541	31	8.2782038778556
64	657242	32	8.2772151508625
64	710495	33	8.3165111541026
64	763566	34	7.4364769355884
64	816637	35	8.0049121296206
64	869708	36	8.2269522006437
64	922961	37	8.2935597992409
64	976214	38	7.5383761941688
64	1029285	39	4.8777321831377
64	1082356	40	4.0061579214638
64	1135427	41	6.3076807787801
64	1184988	42	8.224538171431
64	1234549	43	8.2536578155612
64	1284110	44	6.6192065560566
64	1333671	45	4.1516298030542
64	1383232	46	5.3265710991117
64	1432793	47	7.5217924662362
64	1482354	48	8.2979335837509
64	1528525	49	8.2076875630743
64	1574696	50	8.2740964809014
56	46035	13	375.01949671172
56	57346	14	375.01949671172
56	70367	15	375.16905863155
56	83388	16	380.32966716091
56	98239	17	387.36217951689
56	117110	18	396.29547419706
56	138171	19	407.10707097383
56	161542	20	416.69464945307
56	187343	21	415.88511966689
56	213144	22	414.95316702029
56	241495	23	414.02619074442
56	275306	24	413.09544754381
56	312027	25	412.16893878019
56	351778	26	411.24139488887
56	394679	27	410.31349353289
56	441020	28	409.37060148314
56	490581	29	408.34272101765
56	543652	30	407.2698694525
56	600541	31	406.20099224327
56	657242	32	405.12819117851
56	710495	33	404.05692560301
56	763566	34	402.98314028799
56	816637	35	401.9696075481
56	869708	36	400.97156901357
56	922961	37	399.90429502549
56	976214	38	398.81765519264
56	1029285	39	397.7505316563
56	1082356	40	396.9732233562
56	1135427	41	396.47552938525
56	1184988	42	395.7786791129
56	1234549	43	394.80652720197
56	1284110	44	393.7135765866
56	1333671	45	392.69194376823
56	1383232	46	392.00138846496
56	1432793	47	391.43292467089
56	1482354	48	394.58673158927
56	1528525	49	395.6689674309
56	1574696	50	396.75838138766
55	46035	13	440.89903636064
55	57346	14	440.89903636064
55	70367	15	438.36540989022
55	83388	16	437.6575098945
55	98239	17	437.12964792352
55	117110	18	436.46038700951
55	138171	19	435.65040822791
55	161542	20	432.64093150579
55	187343	21	424.37605135959
55	213144	22	416.13356413737
55	241495	23	407.93508952916
55	275306	24	399.70329903399
55	312027	25	391.50895925369
55	351778	26	383.30546447293
55	394679	27	375.09880816045
55	441020	28	366.89352390016
55	490581	29	358.70884180899
55	543652	30	350.50158583343
55	600541	31	342.32473346404
55	657242	32	334.11786381377
55	710495	33	325.92274057261
55	763566	34	317.70834146157
55	816637	35	309.95487126487
55	869708	36	302.3199308944
55	922961	37	294.15534307943
55	976214	38	285.94801908243
55	1029285	39	277.86983891595
55	1082356	40	271.90469173799
55	1135427	41	268.08533488059
55	1184988	42	262.75996125803
55	1234549	43	255.44068213849
55	1284110	44	247.25534695433
55	1333671	45	239.6041256311
55	1383232	46	234.43241289229
55	1432793	47	230.17506893809
55	1482354	48	228.87473866117
55	1528525	49	236.97723337954
55	1574696	50	245.133469286
38	15491	9	0.973
38	21162	10	2.8878497976225
38	28063	11	4.5359093920551
38	36314	12	2.0209497984999
38	46035	13	1.8995145876449
38	57346	14	1.718128971764
38	70367	15	1.2827713400467
38	83388	16	0.973
38	98239	17	0.973
38	117110	18	3.1807480963504
38	138171	19	0.973
38	161542	20	2.1598534013927
38	187343	21	5.1025786017317
38	213144	22	4.043355162058
38	241495	23	1.6249034676553
38	275306	24	1.5379704059217
38	312027	25	1.6365468471423
38	351778	26	1.5087331943568
38	394679	27	0.973
38	441020	28	0.973
38	490581	29	1.4720643952176
38	543652	30	3.2972274357267
38	600541	31	0.973
38	657242	32	2.9053046109579
38	710495	33	4.8922174826927
38	763566	34	3.8073672656713
38	816637	35	1.5669240840559
38	869708	36	1.5537510917203
38	922961	37	1.6196923502049
38	976214	38	1.4965014725679
38	1029285	39	1.5971369171246
38	1082356	40	1.4463875620887
38	1135427	41	1.4831389959228
38	1184988	42	0.973
38	1234549	43	0.973
38	1284110	44	3.4577958975502
38	1333671	45	5.6085437636169
38	1383232	46	0.973
38	1432793	47	0.973
38	1482354	48	4.5470844344087
38	1528525	49	5.1749381226433
38	1574696	50	2.6061737018268
38	1620867	51	1.3973302753613
38	1660874	52	1.6006937235907
37	15491	9	-0.16178805166502
37	21162	10	1.072323864754
37	28063	11	1.6914551801099
37	36314	12	0.2680163815992
37	46035	13	0.19112779793867
37	57346	14	0.091523917267071
37	70367	15	-0.13246200218912
37	83388	16	-1.8719332829878
37	98239	17	-1.1188570433364
37	117110	18	1.2030925475071
37	138171	19	-1.8585311573527
37	161542	20	0.68226094016684
37	187343	21	2.1391287754639
37	213144	22	1.2453156086349
37	241495	23	0.030794725378509
37	275306	24	-0.012264351439661
37	312027	25	0.035723488412332
37	351778	26	-0.027160652857274
37	394679	27	-4.0855297660828
37	441020	28	-0.58897554954868
37	490581	29	0.1884308732237
37	543652	30	1.4982742183876
37	600541	31	-1.3124504363952
37	657242	32	1.2178346077209
37	710495	33	1.9656199248531
37	763566	34	1.1215278201197
37	816637	35	0.001720502867828
37	869708	36	-0.0047061625355855
37	922961	37	0.027254606313072
37	976214	38	-0.033154205237514
37	1029285	39	0.016603536012116
37	1082356	40	-0.057143556287047
37	1135427	41	-0.037570448101032
37	1184988	42	-1.9542661449931
37	1234549	43	-2.3705345141985
37	1284110	44	1.571866172114
37	1333671	45	2.210143746559
37	1383232	46	-1.543906727927
37	1432793	47	-2.5072189502518
37	1482354	48	2.225819002899
37	1528525	49	1.9420134919765
37	1574696	50	0.52047208216654
37	1620867	51	-0.081225960622543
37	1660874	52	0.020577641755809
34	10930	8	4.8297589304508
34	15491	9	4.6679708787857
34	21162	10	5.7402947435397
34	28063	11	7.4317499236496
34	36314	12	7.6997663052488
34	46035	13	7.8908941031875
34	57346	14	7.9824180204545
34	70367	15	7.8499560182654
34	83388	16	5.9780227352776
34	98239	17	4.8591656919412
34	117110	18	6.0622582394483
34	138171	19	4.2037270820956
34	161542	20	4.8859880222625
34	187343	21	7.0251167977264
34	213144	22	8.2704324063612
34	241495	23	8.3012271317397
34	275306	24	8.2889627803001
34	312027	25	8.3246862687124
34	351778	26	8.2975256158551
34	394679	27	4.2119958497724
34	441020	28	3.6230203002237
34	490581	29	3.8114511734474
34	543652	30	5.309725391835
34	600541	31	3.9972749554398
34	657242	32	5.2151095631606
34	710495	33	7.1807294880137
34	763566	34	8.3022573081334
34	816637	35	8.3039778110012
34	869708	36	8.2992716484657
34	922961	37	8.3265262547787
34	976214	38	8.2933720495412
34	1029285	39	8.3099755855533
34	1082356	40	8.2528320292663
34	1135427	41	8.2152615811653
34	1184988	42	6.2609954361722
34	1234549	43	3.8904609219736
34	1284110	44	5.4623270940876
34	1333671	45	7.6724708406466
34	1383232	46	6.1285641127196
34	1432793	47	3.6213451624679
34	1482354	48	5.8471641653668
34	1528525	49	7.7891776573434
34	1574696	50	8.3096497395099
34	1620867	51	8.2284237788874
34	1660874	52	8.2490014206432
26	7359	7	142.28348383268
26	10930	8	142.28348383268
26	15491	9	143.34385535827
26	21162	10	147.87691632621
26	28063	11	153.01862283245
26	36314	12	159.58294767235
26	46035	13	167.20395886392
26	57346	14	175.01813361178
26	70367	15	182.95447872543
26	83388	16	190.96776696496
26	98239	17	197.73805427356
26	117110	18	202.92964442059
26	138171	19	208.36898364815
26	161542	20	213.5956947535
26	187343	21	217.59349525283
26	213144	22	223.5292707758
26	241495	23	231.45382228208
26	275306	24	239.70112485176
26	312027	25	247.94265559661
26	351778	26	256.18773821975
26	394679	27	264.44962841553
26	441020	28	270.67612006519
26	490581	29	274.14713644958
26	543652	30	278.02163439171
26	600541	31	282.58079962297
26	657242	32	287.61130572565
26	710495	33	291.80500020168
26	763566	34	298.16316177065
26	816637	35	306.1471111612
26	869708	36	314.36043973321
26	922961	37	322.59445489631
26	976214	38	330.8199447505
26	1029285	39	339.04082784802
26	1082356	40	347.26409542354
26	1135427	41	355.4960437282
26	1184988	42	363.69226993993
26	1234549	43	371.15443948488
26	1284110	44	376.03899108708
26	1333671	45	380.36607872566
26	1383232	46	386.86399563889
26	1432793	47	388.5941880462
26	1482354	48	389.15044404276
26	1528525	49	389.70444442722
26	1574696	50	390.48386170994
26	1620867	51	391.38433928756
26	1660874	52	392.28772126955
25	7359	7	177.60994017842
25	10930	8	177.60994017842
25	15491	9	174.97089263025
25	21162	10	175.07457753167
25	28063	11	175.23388893062
25	36314	12	175.49788343307
25	46035	13	175.80437421572
25	57346	14	176.11863337031
25	70367	15	176.43780579561
25	83388	16	176.76007260803
25	98239	17	177.03235021054
25	117110	18	177.24113805868
25	138171	19	177.45988952027
25	161542	20	177.67008981221
25	187343	21	177.8120415348
25	213144	22	179.08986082924
25	241495	23	179.16924253234
25	275306	24	178.75829446615
25	312027	25	178.34763399948
25	351778	26	177.93679654919
25	394679	27	177.52512160816
25	441020	28	177.2164588401
25	490581	29	177.04491544361
25	543652	30	176.85361517854
25	600541	31	176.62877221111
25	657242	32	176.38068426903
25	710495	33	176.17386511186
25	763566	34	175.76063108801
25	816637	35	175.13533550445
25	869708	36	174.40015644346
25	922961	37	173.66312571558
25	976214	38	172.92685809226
25	1029285	39	172.191002822
25	1082356	40	171.45493411594
25	1135427	41	170.71808839356
25	1184988	42	169.98444017321
25	1234549	43	169.31649772443
25	1284110	44	168.87927911948
25	1333671	45	168.49195938679
25	1383232	46	169.20460335143
25	1432793	47	175.97000206558
25	1482354	48	180.63424056543
25	1528525	49	185.27956562824
25	1574696	50	192.2132373577
25	1620867	51	200.39917225971
25	1660874	52	208.61151011245
118	312027	25	4.5850445121696
118	351778	26	5.1754062857985
118	394679	27	1.9262449411611
118	441020	28	1.6235066834644
118	490581	29	0.973
118	543652	30	0.973
118	600541	31	3.5040624774884
118	657242	32	4.8728996711456
118	710495	33	3.4333847981177
118	763566	34	0.973
118	816637	35	0.973
118	869708	36	0.973
118	922961	37	3.8965393453875
118	976214	38	4.2387435423758
118	1029285	39	5.2269077953249
118	1082356	40	1.7645094946172
118	1135427	41	1.4577670552706
118	1184988	42	1.6155082034429
118	1234549	43	1.4800515469496
118	1284110	44	1.6952824290267
118	1333671	45	1.3936873867936
118	1383232	46	1.6375986994857
118	1432793	47	1.6729493754502
118	1482354	48	1.4017931946571
118	1528525	49	1.6210640252303
118	1574696	50	1.4646842834381
118	1620867	51	1.6295079532304
118	1660874	52	1.6557280068873
118	1700783	53	1.518620280862
118	1737504	54	1.61204119811
118	1774225	55	1.3339070426045
118	1810946	56	1.5805980847468
117	312027	25	2.0930893016118
117	351778	26	1.856389504429
117	394679	27	0.18228850212095
117	441020	28	0.029576455319766
117	490581	29	-2.1324936299613
117	543652	30	-2.3892697718363
117	600541	31	1.6227121886125
117	657242	32	1.9103780703247
117	710495	33	0.93988006141016
117	763566	34	-2.328985492843
117	816637	35	-2.4267943897148
117	869708	36	-1.300235326159
117	922961	37	2.3354363551736
117	976214	38	1.8227786824433
117	1029285	39	1.8519636595924
117	1082356	40	0.099706805620214
117	1135427	41	-0.051850514437538
117	1184988	42	0.026336740453262
117	1234549	43	-0.040265803451184
117	1284110	44	0.065206540820654
117	1333671	45	-0.083252915807535
117	1383232	46	0.038158148434015
117	1432793	47	0.05372221717378
117	1482354	48	-0.07946895922767
117	1528525	49	0.029718525668141
117	1574696	50	-0.04733992965892
117	1620867	51	0.034439002538566
117	1660874	52	0.045800818791614
117	1700783	53	-0.021967735015789
117	1737504	54	0.023919560434297
117	1774225	55	-0.11265379012562
117	1810946	56	0.011750826917122
112	275306	24	4.1538500034794
112	312027	25	6.2469393050912
112	351778	26	8.1033288095202
112	394679	27	8.2856173116411
112	441020	28	8.3151937669609
112	490581	29	6.1827001369996
112	543652	30	3.7934303651633
112	600541	31	5.4161425537758
112	657242	32	7.3265206241004
112	710495	33	8.2664006855106
112	763566	34	5.9374151926676
112	816637	35	3.5106208029528
112	869708	36	2.2103854767938
112	922961	37	4.5458218319674
112	976214	38	6.3686005144107
112	1029285	39	8.2205641740031
112	1082356	40	8.3202709796233
112	1135427	41	8.2684204651858
112	1184988	42	8.294757205639
112	1234549	43	8.2544914021879
112	1284110	44	8.3196979430085
112	1333671	45	8.236445027201
112	1383232	46	8.274603175635
112	1432793	47	8.3283253928088
112	1482354	48	8.2488564335811
112	1528525	49	8.2785749592492
112	1574696	50	8.2312350295903
112	1620867	51	8.2656740321289
112	1660874	52	8.3114748509205
112	1700783	53	8.2895071159047
112	1737504	54	8.313426676339
112	1774225	55	8.2007728862134
112	1810946	56	8.2125237131305
105	241495	23	66.045941097626
105	275306	24	66.045941097626
105	312027	25	69.277501235283
105	351778	26	74.611168659838
105	394679	27	81.884733954279
105	441020	28	90.13901634347
105	490581	29	98.397228773108
105	543652	30	105.80208417501
105	600541	31	110.6103979359
105	657242	32	114.90524781523
105	710495	33	121.43043930998
105	763566	34	129.47714667318
105	816637	35	136.63619520455
105	869708	36	141.20933902128
105	922961	37	143.7907828912
105	976214	38	147.2916242977
105	1029285	39	149.08166659258
105	1082356	40	149.25767845969
105	1135427	41	149.38259121066
105	1184988	42	149.50715965057
105	1234549	43	149.63171507845
105	1284110	44	149.75641382462
105	1333671	45	149.88087107686
105	1383232	46	150.00545230587
105	1432793	47	149.56764107567
105	1482354	48	142.78953080433
105	1528525	49	134.61577658279
105	1574696	50	126.4564733493
105	1620867	51	118.29060295931
105	1660874	52	110.12476277704
105	1700783	53	101.93168584996
105	1737504	54	93.764473551713
105	1774225	55	85.575024607548
105	1810946	56	77.407103048304
104	241495	23	245.99217926895
104	275306	24	245.99217926895
104	312027	25	245.89943494213
104	351778	26	245.74636107882
104	394679	27	245.53761301656
104	441020	28	245.30071881346
104	490581	29	245.06371181996
104	543652	30	244.85119579049
104	600541	31	244.71319934175
104	657242	32	244.58993907615
104	710495	33	244.37994361871
104	763566	34	244.09154689785
104	816637	35	243.81540230648
104	869708	36	243.63900331644
104	922961	37	243.5394297824
104	976214	38	243.84627492972
104	1029285	39	248.89953250058
104	1082356	40	256.25575986067
104	1135427	41	264.5370634499
104	1184988	42	272.79554035053
104	1234549	43	281.05315459648
104	1284110	44	289.32027037257
104	1333671	45	297.57137589748
104	1383232	46	305.83070067401
104	1432793	47	314.03898656143
104	1482354	48	317.44250788498
104	1528525	49	318.66944740358
104	1574696	50	319.89421772455
104	1620867	51	321.11997382312
104	1660874	52	322.34572538729
104	1700783	53	323.57556538349
104	1737504	54	324.80152291218
104	1774225	55	326.03081832195
104	1810946	56	327.25688231584
53	36314	12	4.5708007098458
53	46035	13	5.4989822936888
53	57346	14	1.6298322238653
53	70367	15	1.607727144019
53	83388	16	1.5796264542917
53	98239	17	1.4532488184182
53	117110	18	1.6865785746584
53	138171	19	1.5914657927566
53	161542	20	1.4212703784227
53	187343	21	1.582920139568
53	213144	22	1.6772414980799
53	241495	23	1.3346706779808
53	275306	24	1.671420481433
53	312027	25	1.6355847187074
53	351778	26	0.973
53	394679	27	0.973
53	441020	28	0.973
53	490581	29	0.973
53	543652	30	0.973
53	600541	31	0.973
53	657242	32	0.973
53	710495	33	0.973
53	763566	34	0.973
53	816637	35	0.973
53	869708	36	0.973
53	922961	37	0.973
53	976214	38	0.973
53	1029285	39	0.973
53	1082356	40	0.973
53	1135427	41	0.973
53	1184988	42	0.973
53	1234549	43	0.973
53	1284110	44	0.973
53	1333671	45	0.973
53	1383232	46	0.973
53	1432793	47	0.973
53	1482354	48	0.973
53	1528525	49	0.973
53	1574696	50	0.973
53	1620867	51	2.4523518133695
53	1660874	52	3.1748437971678
53	1700783	53	4.0957581277107
53	1737504	54	5.6233655726367
53	1774225	55	5.9476042646028
53	1810946	56	0.973
53	1847667	57	0.973
53	1881478	58	0.973
53	1915289	59	3.3933241570844
52	36314	12	2.0854891575291
52	46035	13	1.9869875345589
52	57346	14	0.034679731749963
52	70367	15	0.022749730106444
52	83388	16	0.0083872860926206
52	98239	17	-0.053381451768802
52	117110	18	0.061553269650322
52	138171	19	0.013542684074492
52	161542	20	-0.069620652939193
52	187343	21	0.011315319424028
52	213144	22	0.05641555564711
52	241495	23	-0.11229781763162
52	275306	24	0.055786853153258
52	312027	25	0.036391141109634
52	351778	26	-1.6879038373217
52	394679	27	-2.5194432355717
52	441020	28	-1.8343950828367
52	490581	29	-1.235880628937
52	543652	30	-0.57771896671869
52	600541	31	-0.43900738961541
52	657242	32	-0.00011101855069737
52	710495	33	0
52	763566	34	0
52	816637	35	0
52	869708	36	0
52	922961	37	0
52	976214	38	0
52	1029285	39	0
52	1082356	40	0
52	1135427	41	0
52	1184988	42	0
52	1234549	43	0
52	1284110	44	0
52	1333671	45	0
52	1383232	46	0
52	1432793	47	0
52	1482354	48	0
52	1528525	49	0
52	1574696	50	0
52	1620867	51	2.2611687149189
52	1660874	52	1.8681647120266
52	1700783	53	1.8560010649217
52	1737504	54	2.0930590817542
52	1774225	55	1.7954213689314
52	1810946	56	-0.78958336711254
52	1847667	57	-2.9760741616609
52	1881478	58	-2.3469121017665
52	1915289	59	1.567069619722
49	28063	11	4.1564618187956
49	36314	12	6.2419509763247
49	46035	13	8.2289385108836
49	57346	14	8.2636182426335
49	70367	15	8.28636797274
49	83388	16	8.2947552588326
49	98239	17	8.2413738070638
49	117110	18	8.3029270767141
49	138171	19	8.3164697607886
49	161542	20	8.2468491078494
49	187343	21	8.2581644272734
49	213144	22	8.3145799829206
49	241495	23	8.2022821652889
49	275306	24	8.2580690184422
49	312027	25	8.2944601595518
49	351778	26	6.6065563222301
49	394679	27	4.0871130866585
49	441020	28	2.2527180038218
49	490581	29	1.0168373748848
49	543652	30	0.4391184081661
49	600541	31	0.00011101855069737
49	657242	32	0
49	710495	33	0
49	763566	34	0
49	816637	35	0
49	869708	36	0
49	922961	37	0
49	976214	38	0
49	1029285	39	0
49	1082356	40	0
49	1135427	41	0
49	1184988	42	0
49	1234549	43	0
49	1284110	44	0
49	1333671	45	0
49	1383232	46	0
49	1432793	47	0
49	1482354	48	0
49	1528525	49	0
49	1574696	50	0
49	1620867	51	2.2611687149189
49	1660874	52	4.1293334269455
49	1700783	53	5.9853344918672
49	1737504	54	8.0783935736214
49	1774225	55	9.8738149425528
49	1810946	56	9.0842315754402
49	1847667	57	6.1081574137793
49	1881478	58	3.7612453120128
49	1915289	59	5.3283149317349
41	21162	10	403.72021327312
41	28063	11	403.72021327312
41	36314	12	404.13685048904
41	46035	13	404.8240113266
41	57346	14	405.76903409808
41	70367	15	406.84100962098
41	83388	16	407.913806556
41	98239	17	408.98640051893
41	117110	18	410.05984981049
41	138171	19	411.13195712499
41	161542	20	412.19524269038
41	187343	21	413.17245625919
41	213144	22	414.10031023932
41	241495	23	415.03109249904
41	275306	24	415.96018112387
41	312027	25	416.88895999675
41	351778	26	417.81988140521
41	394679	27	418.68601160625
41	441020	28	419.27021871787
41	490581	29	419.6089382356
41	543652	30	419.77543027487
41	600541	31	419.84631296042
41	657242	32	419.88753339472
41	710495	33	419.88753339472
41	763566	34	419.88753339472
41	816637	35	419.88753339472
41	869708	36	419.88753339472
41	922961	37	419.88753339472
41	976214	38	419.88753339472
41	1029285	39	419.88753339472
41	1082356	40	419.88753339472
41	1135427	41	419.88753339472
41	1184988	42	419.88753339472
41	1234549	43	419.88753339472
41	1284110	44	419.88753339472
41	1333671	45	419.88753339472
41	1383232	46	419.88753339472
41	1432793	47	419.88753339472
41	1482354	48	419.88753339472
41	1528525	49	419.88753339472
41	1574696	50	419.88753339472
41	1620867	51	419.88753339472
41	1660874	52	419.99034412605
41	1700783	53	419.6121404615
41	1737504	54	415.83899348218
41	1774225	55	408.82320319065
41	1810946	56	399.77645490526
41	1847667	57	389.73725217417
41	1881478	58	382.34153966705
41	1915289	59	378.22302156904
40	21162	10	297.90158790723
40	28063	11	297.90158790723
40	36314	12	301.08883989161
40	46035	13	306.34558283105
40	57346	14	313.57495550495
40	70367	15	321.77550980495
40	83388	16	329.98234786299
40	98239	17	338.18763319549
40	117110	18	346.39946174548
40	138171	19	354.60102424404
40	161542	20	362.79352976723
40	187343	21	371.00501987437
40	213144	22	379.2112571797
40	241495	23	387.44339312615
40	275306	24	395.66055002401
40	312027	25	403.87496737659
40	351778	26	412.10833399894
40	394679	27	419.76866646424
40	441020	28	424.93558097457
40	490581	29	427.9313247036
40	543652	30	429.40383353904
40	600541	31	430.03074267663
40	657242	32	430.39530937886
40	710495	33	430.39530937886
40	763566	34	430.39530937886
40	816637	35	430.39530937886
40	869708	36	430.39530937886
40	922961	37	430.39530937886
40	976214	38	430.39530937886
40	1029285	39	430.39530937886
40	1082356	40	430.39530937886
40	1135427	41	430.39530937886
40	1184988	42	430.39530937886
40	1234549	43	430.39530937886
40	1284110	44	430.39530937886
40	1333671	45	430.39530937886
40	1383232	46	430.39530937886
40	1432793	47	430.39530937886
40	1482354	48	430.39530937886
40	1528525	49	430.39530937886
40	1574696	50	430.39530937886
40	1620867	51	430.39530937886
40	1660874	52	431.70006084136
40	1700783	53	434.91741941239
40	1737504	54	438.05845728135
40	1774225	55	438.83044913192
40	1810946	56	439.50800667276
40	1847667	57	440.25989423501
40	1881478	58	440.81379720888
40	1915289	59	441.13743260048
146	600541	31	4.5295982991006
146	657242	32	5.141304191657
146	710495	33	6.0856194367342
146	763566	34	7.1074681185242
146	816637	35	5.7426510864458
146	869708	36	0.973
146	922961	37	0.973
146	976214	38	0.973
146	1029285	39	2.1854581263374
146	1082356	40	5.0090744630539
146	1135427	41	4.0284301357085
146	1184988	42	1.6038017446659
146	1234549	43	1.6169565164802
146	1284110	44	1.5781896318066
146	1333671	45	1.4125154746014
146	1383232	46	1.7441000428289
146	1432793	47	1.5011304716835
146	1482354	48	1.437322864872
146	1528525	49	1.764825472701
146	1574696	50	1.5450515583596
146	1620867	51	1.5521167187772
146	1660874	52	1.4329259900084
146	1700783	53	1.5767212007409
146	1737504	54	1.5687313046469
146	1774225	55	1.6157224213634
146	1810946	56	1.6082594571297
146	1847667	57	1.5707106153497
146	1881478	58	1.4831858359974
146	1915289	59	1.5617604919648
146	1949100	60	1.528909022142
145	600541	31	2.0588676472893
145	657242	32	1.8440133883385
145	710495	33	1.8420469816821
145	763566	34	1.8583746744809
145	816637	35	1.2139345852055
145	869708	36	-3.2129313436739
145	922961	37	-3.1006176020585
145	976214	38	-2.5112339195055
145	1029285	39	0.70537243718644
145	1082356	40	2.0995692410273
145	1135427	41	1.2462650336481
145	1184988	42	0.022218271198216
145	1234549	43	0.027803875568789
145	1284110	44	0.0080836151610129
145	1333671	45	-0.073101755308453
145	1383232	46	0.090425780143123
145	1432793	47	-0.030135494233109
145	1482354	48	-0.06055642251391
145	1528525	49	0.1003450812283
145	1574696	50	-0.0091004177369172
145	1620867	51	-0.0053907258645634
145	1660874	52	-0.063366388371215
145	1700783	53	0.0088081571087244
145	1737504	54	0.0046262311469754
145	1774225	55	0.02726271480322
145	1810946	56	0.022691672088113
145	1847667	57	0.0037803596537547
145	1881478	58	-0.038856094086077
145	1915289	59	0.00059450493892754
145	1949100	60	-0.015415769633838
144	543652	30	4.1810023538126
144	600541	31	6.2398700011019
144	657242	32	8.0838833894404
144	710495	33	9.9259303711225
144	763566	34	11.784305045603
144	816637	35	12.998239630809
144	869708	36	9.7853082871349
144	922961	37	6.6846906850764
144	976214	38	4.173456765571
144	1029285	39	4.8788292027574
144	1082356	40	6.9783984437848
144	1135427	41	8.2246634774329
144	1184988	42	8.2468817486311
144	1234549	43	8.2746856241999
144	1284110	44	8.2827692393609
144	1333671	45	8.2096674840525
144	1383232	46	8.3000932641956
144	1432793	47	8.2699577699625
144	1482354	48	8.2094013474486
144	1528525	49	8.3097464286769
144	1574696	50	8.30064601094
144	1620867	51	8.2952552850754
144	1660874	52	8.2318888967042
144	1700783	53	8.2406970538129
144	1737504	54	8.2453232849599
144	1774225	55	8.2725859997631
144	1810946	56	8.2952776718512
144	1847667	57	8.299058031505
144	1881478	58	8.2602019374189
144	1915289	59	8.2607964423578
144	1949100	60	8.245380672724
136	490581	29	497.43203406103
136	543652	30	497.43203406103
136	600541	31	493.86242169854
136	657242	32	488.59327243984
136	710495	33	481.40516895985
136	763566	34	472.31203123151
136	816637	35	461.41896625495
136	869708	36	448.70408975453
136	922961	37	437.51842855555
136	976214	38	429.49772083279
136	1029285	39	424.21534698388
136	1082356	40	420.29259774747
136	1135427	41	416.90384058608
136	1184988	42	415.92064643625
136	1234549	43	414.99328549181
136	1284110	44	414.06503197094
136	1333671	45	413.13765707329
136	1383232	46	412.20710967165
136	1432793	47	411.2802871165
136	1482354	48	410.35119915506
136	1528525	49	409.40965162216
136	1574696	50	408.38180472883
136	1620867	51	407.31080342385
136	1660874	52	406.2364128132
136	1700783	53	405.16827574827
136	1737504	54	404.10016636934
136	1774225	55	403.02631080315
136	1810946	56	401.95369080086
136	1847667	57	400.88112395224
136	1881478	58	399.80754065513
136	1915289	59	398.72004178365
136	1949100	60	397.63809097701
135	490581	29	434.27624351961
135	543652	30	434.27624351961
135	600541	31	431.29147157474
135	657242	32	431.76837760444
135	710495	33	432.41896648006
135	763566	34	433.2419783172
135	816637	35	434.22789997441
135	869708	36	435.37871217809
135	922961	37	436.39111646009
135	976214	38	437.11706360784
135	1029285	39	437.59516658348
135	1082356	40	437.16587353105
135	1135427	41	432.47982652012
135	1184988	42	424.6902614684
135	1234549	43	416.48838472843
135	1284110	44	408.27861375699
135	1333671	45	400.07661361031
135	1383232	46	391.84655482388
135	1432793	47	383.64943977086
135	1482354	48	375.43228874026
135	1528525	49	367.21505361619
135	1574696	50	359.00783006839
135	1620867	51	350.81472848234
135	1660874	52	342.59569889272
135	1700783	53	334.42450858678
135	1737504	54	326.25353007731
135	1774225	55	318.0385935486
135	1810946	56	309.83310901641
135	1847667	57	301.62803110681
135	1881478	58	293.41517742174
135	1915289	59	285.22070348602
135	1949100	60	277.00695709592
18	2707	5	4.0931528521982
18	4658	6	5.7190741242088
18	7359	7	2.006673228108
18	10930	8	1.6652821855545
18	15491	9	1.3708117405831
18	21162	10	1.5361059688399
18	28063	11	1.7957312811872
18	36314	12	1.4362602063601
18	46035	13	1.4513399526781
18	57346	14	1.6220678014574
18	70367	15	1.6390936518485
18	83388	16	1.5532514302848
18	98239	17	1.5494922092707
18	117110	18	1.605192832551
18	138171	19	0.973
18	161542	20	0.973
18	187343	21	2.2383658433845
18	213144	22	5.1876731932282
18	241495	23	4.0092902020182
18	275306	24	1.456774319633
18	312027	25	1.7936862749796
18	351778	26	1.3539929857788
18	394679	27	1.5372191154097
18	441020	28	1.5383548337924
18	490581	29	1.7142115618183
18	543652	30	1.6199936692008
18	600541	31	1.5965003302264
18	657242	32	1.4665455610116
18	710495	33	1.537681630716
18	763566	34	1.4962634951634
18	816637	35	1.5860854110009
18	869708	36	0.973
18	922961	37	0.973
18	976214	38	4.4900842045725
18	1029285	39	5.8320863547883
18	1082356	40	2.0690530790073
18	1135427	41	1.6202810682217
18	1184988	42	1.4524799457758
18	1234549	43	1.7671310940889
18	1284110	44	1.3638134657062
18	1333671	45	1.6071380916842
18	1383232	46	0.973
18	1432793	47	0.973
18	1482354	48	4.2765022294383
18	1528525	49	5.1143209501331
18	1574696	50	1.413182277255
18	1620867	51	0.973
18	1660874	52	0.973
18	1700783	53	5.025506947676
18	1737504	54	5.0752041649071
18	1774225	55	1.6127462459837
18	1810946	56	1.6435278691477
18	1847667	57	1.5014199609218
18	1881478	58	1.4780845945458
18	1915289	59	1.6682575240263
18	1949100	60	1.50219285142
17	2707	5	1.8934586951672
17	4658	6	2.1563206688361
17	7359	7	0.22437091546548
17	10930	8	0.050761703662575
17	15491	9	-0.09424151220359
17	21162	10	-0.010387579360977
17	28063	11	0.11541137654102
17	36314	12	-0.062296200578567
17	46035	13	-0.05326623550849
17	57346	14	0.031901207389311
17	70367	15	0.038978391087147
17	83388	16	-0.0039464296982619
17	98239	17	-0.0056463644420717
17	117110	18	0.021540704162325
17	138171	19	-1.6545523271114
17	161542	20	-2.542675292125
17	187343	21	0.75725006818863
17	213144	22	2.1870645145816
17	241495	23	1.2298302504523
17	275306	24	-0.050765308185946
17	312027	25	0.11403817245271
17	351778	26	-0.10294235693058
17	394679	27	-0.010143402330577
17	441020	28	-0.0092667012615131
17	490581	29	0.076390096931718
17	543652	30	0.02812422328163
17	600541	31	0.015826332252473
17	657242	32	-0.04763629178051
17	710495	33	-0.01159291376127
17	763566	34	-0.031450094268656
17	816637	35	0.013351012037601
17	869708	36	-2.2325040656789
17	922961	37	-2.4847247056498
17	976214	38	2.2249336905672
17	1029285	39	2.2298115082388
17	1082356	40	0.2567638015007
17	1135427	41	0.029664036910981
17	1184988	42	-0.053087466259022
17	1234549	43	0.1011383748427
17	1284110	44	-0.097935092942789
17	1333671	45	0.024015810110141
17	1383232	46	-2.1983695288058
17	1432793	47	-2.4534948867661
17	1482354	48	2.0970478827139
17	1528525	49	1.9520130136609
17	1574696	50	-0.05634873865904
17	1620867	51	-2.6201871513051
17	1660874	52	-0.8178773544039
17	1700783	53	2.3030124041182
17	1737504	54	1.774538996747
17	1774225	55	0.02658273643814
17	1810946	56	0.040496116171125
17	1847667	57	-0.029730252544397
17	1881478	58	-0.040290197932626
17	1915289	59	0.053533785021862
17	1949100	60	-0.028869879569392
14	1386	4	3.9817542820289
14	2707	5	5.8752129771961
14	4658	6	8.0315336460323
14	7359	7	8.2559045614977
14	10930	8	8.3066662651603
14	15491	9	8.2124247529567
14	21162	10	8.2020371735957
14	28063	11	8.3174485501368
14	36314	12	8.2551523495582
14	46035	13	8.2018861140497
14	57346	14	8.233787321439
14	70367	15	8.2727657125262
14	83388	16	8.2688192828279
14	98239	17	8.2631729183858
14	117110	18	8.2847136225482
14	138171	19	6.6301612954368
14	161542	20	4.0874860033118
14	187343	21	4.8447360715004
14	213144	22	7.031800586082
14	241495	23	8.2616308365343
14	275306	24	8.2108655283484
14	312027	25	8.3249037008011
14	351778	26	8.2219613438705
14	394679	27	8.2118179415399
14	441020	28	8.2025512402784
14	490581	29	8.2789413372101
14	543652	30	8.3070655604918
14	600541	31	8.3228918927442
14	657242	32	8.2752556009637
14	710495	33	8.2636626872024
14	763566	34	8.2322125929338
14	816637	35	8.2455636049714
14	869708	36	6.0130595392925
14	922961	37	3.5283348336427
14	976214	38	5.7532685242099
14	1029285	39	7.9830800324487
14	1082356	40	8.2398438339494
14	1135427	41	8.2695078708604
14	1184988	42	8.2164204046014
14	1234549	43	8.3175587794441
14	1284110	44	8.2196236865013
14	1333671	45	8.2436394966114
14	1383232	46	6.0452699678057
14	1432793	47	3.5917750810396
14	1482354	48	5.6888229637535
14	1528525	49	7.6408359774144
14	1574696	50	7.5844872387554
14	1620867	51	4.9643000874502
14	1660874	52	4.1464227330463
14	1700783	53	6.4494351371645
14	1737504	54	8.2239741339115
14	1774225	55	8.2505568703497
14	1810946	56	8.2910529865208
14	1847667	57	8.2613227339764
14	1881478	58	8.2210325360438
14	1915289	59	8.2745663210656
14	1949100	60	8.2456964414963
6	575	3	209.63502660415
6	1386	4	209.63502660415
6	2707	5	209.64250856738
6	4658	6	209.65484106074
6	7359	7	209.67215074671
6	10930	8	209.69232639665
6	15491	9	209.71251579327
6	21162	10	209.73269098995
6	28063	11	209.75283811139
6	36314	12	209.77302804379
6	46035	13	209.80607402033
6	57346	14	209.86705479388
6	70367	15	209.93046709922
6	83388	16	209.99394982375
6	98239	17	210.05734795865
6	117110	18	210.12083282963
6	138171	19	210.18444811999
6	161542	20	210.24388136284
6	187343	21	210.24842972748
6	213144	22	210.185401409
6	241495	23	210.05909866213
6	275306	24	210.03580748387
6	312027	25	210.04364250265
6	351778	26	210.23826688247
6	394679	27	211.2263584296
6	441020	28	212.21300451003
6	490581	29	213.20266729959
6	543652	30	214.19160876263
6	600541	31	215.17885342045
6	657242	32	216.16651064196
6	710495	33	217.15246777038
6	763566	34	218.13901599097
6	816637	35	219.12575169456
6	869708	36	220.1148014755
6	922961	37	220.98032243309
6	976214	38	221.52938811885
6	1029285	39	222.07727622634
6	1082356	40	217.44448399989
6	1135427	41	209.1834304835
6	1184988	42	200.91469878993
6	1234549	43	192.65568517939
6	1284110	44	184.37426241918
6	1333671	45	176.12406590993
6	1383232	46	167.8571498578
6	1432793	47	160.62315467488
6	1482354	48	155.99494676866
6	1528525	49	151.48020484136
6	1574696	50	144.76681231613
6	1620867	51	136.69233605759
6	1660874	52	130.61437261914
6	1700783	53	126.66791525167
6	1737504	54	121.42396232579
6	1774225	55	120.90284558416
6	1810946	56	121.05440850026
6	1847667	57	121.20605439718
6	1881478	58	121.3582512694
6	1915289	59	121.51805820748
6	1949100	60	121.66983111576
5	575	3	444.72130141407
5	1386	4	444.72130141407
5	2707	5	441.65977558534
5	4658	6	436.61347345705
5	7359	7	429.53056633236
5	10930	8	421.27494257094
5	15491	9	413.01369384248
5	21162	10	404.75825554867
5	28063	11	396.514305296
5	36314	12	388.25283733027
5	46035	13	379.99398645135
5	57346	14	371.74923325786
5	70367	15	363.49046975117
5	83388	16	355.22253491076
5	98239	17	346.96561695075
5	117110	18	338.69740255821
5	138171	19	330.41220245907
5	161542	20	322.67166859137
5	187343	21	317.45090701782
5	213144	22	313.47204227015
5	241495	23	307.37157624935
5	275306	24	299.42891200049
5	312027	25	291.17080221021
5	351778	26	282.90647794199
5	394679	27	274.70055819142
5	441020	28	266.50664277762
5	490581	29	258.28767414565
5	543652	30	250.07469599873
5	600541	31	241.87580950905
5	657242	32	233.67349675336
5	710495	33	225.48530296014
5	763566	34	217.29220025441
5	816637	35	209.09754053665
5	869708	36	200.88366282929
5	922961	37	193.69566942822
5	976214	38	189.13577923555
5	1029285	39	184.58566861531
5	1082356	40	181.1108573578
5	1135427	41	180.79751189695
5	1184988	42	180.46502345892
5	1234549	43	180.13292578822
5	1284110	44	179.7999270382
5	1333671	45	179.46818390606
5	1383232	46	179.13576847557
5	1432793	47	178.84488713509
5	1482354	48	178.65878536342
5	1528525	49	178.47724609631
5	1574696	50	178.29528020527
5	1620867	51	178.2056254123
5	1660874	52	178.1491737395
5	1700783	53	178.11381002367
5	1737504	54	178.94756185095
5	1774225	55	186.26323507211
5	1810946	56	194.512233129
5	1847667	57	202.76574751864
5	1881478	58	211.04924941635
5	1915289	59	219.31291037409
5	1949100	60	227.59077892028
33	10930	8	4.0073828565371
33	15491	9	4.8188244594377
33	21162	10	2.8787618286212
33	28063	11	1.6825653200548
33	36314	12	1.3707442371177
33	46035	13	1.7257413002491
33	57346	14	1.3884838733292
33	70367	15	1.6398954610868
33	83388	16	1.4528071085445
33	98239	17	1.751136159973
33	117110	18	1.6158927789961
33	138171	19	1.4997102131434
33	161542	20	1.6325230079259
33	187343	21	1.5622426737094
33	213144	22	1.4280066747851
33	241495	23	1.7012729561339
33	275306	24	1.5172037381152
33	312027	25	0.973
33	351778	26	0.973
33	394679	27	0.973
33	441020	28	5.0911159631782
33	490581	29	5.2210513559442
33	543652	30	1.4374059682968
33	600541	31	1.7141422698341
33	657242	32	1.5971666040048
33	710495	33	0.973
33	763566	34	0.973
33	816637	35	0.973
33	869708	36	0.973
33	922961	37	0.973
33	976214	38	0.973
33	1029285	39	0.973
33	1082356	40	0.973
33	1135427	41	0.973
33	1184988	42	0.973
33	1234549	43	0.973
33	1284110	44	0.973
33	1333671	45	0.973
33	1383232	46	0.973
33	1432793	47	0.973
33	1482354	48	0.973
33	1528525	49	0.973
33	1574696	50	0.973
33	1620867	51	1.1777951032643
33	1660874	52	1.5637000881385
33	1700783	53	2.4135498576391
33	1737504	54	2.2745968335417
33	1774225	55	4.300895219523
33	1810946	56	4.9357368113999
33	1847667	57	6.3412709620554
33	1881478	58	0.973
33	1915289	59	0.973
33	1949100	60	0.973
33	1980261	61	0.973
33	2006062	62	5.0448033281028
33	2031863	63	5.807495012505
33	2057792	64	6.1359505129312
33	2083593	65	6.9893356772145
32	10930	8	1.8649259450915
32	15491	9	1.8050989899132
32	21162	10	0.66292220657965
32	28063	11	0.05914055863861
32	36314	12	-0.094411180203315
32	46035	13	0.081262434874661
32	57346	14	-0.085358823514543
32	70367	15	0.040084986602887
32	83388	16	-0.052525983992965
32	98239	17	0.094123744654935
32	117110	18	0.025540976275225
32	138171	19	-0.031453135716729
32	161542	20	0.033746812222526
32	187343	21	-0.0012454489525418
32	213144	22	-0.06647167558549
32	241495	23	0.068005812151823
32	275306	24	-0.023037292053923
32	312027	25	-0.79204275101334
32	351778	26	-2.7144954509163
32	394679	27	-0.6814425302189
32	441020	28	2.3426510283118
32	490581	29	1.8317911289134
32	543652	30	-0.060970309525729
32	600541	31	0.075366685795599
32	657242	32	0.016320213307626
32	710495	33	-1.9775574963687
32	763566	34	-2.3396536781899
32	816637	35	-1.8997616997015
32	869708	36	-1.1722429982241
32	922961	37	-0.48907851515611
32	976214	38	-0.43984618962564
32	1029285	39	-0.00020590069532699
32	1082356	40	0
32	1135427	41	0
32	1184988	42	0
32	1234549	43	0
32	1284110	44	0
32	1333671	45	0
32	1383232	46	0
32	1432793	47	0
32	1482354	48	0
32	1528525	49	0
32	1574696	50	0
32	1620867	51	0.43963130403485
32	1660874	52	1.0569180188157
32	1700783	53	1.5637134970851
32	1737504	54	0.98741251739367
32	1774225	55	1.981811735956
32	1810946	56	1.803047425223
32	1847667	57	1.9759837310435
32	1881478	58	-0.27856983392501
32	1915289	59	-1.1518689360051
32	1949100	60	-2.7687055005303
32	1980261	61	-1.9162833108926
32	2006062	62	2.4452346217982
32	2031863	63	2.1307900034706
32	2057792	64	1.826476381626
32	2083593	65	1.7969547041832
29	7359	7	3.9208195363214
29	10930	8	5.7857454814129
29	15491	9	7.5908444713262
29	21162	10	8.2537666779058
29	28063	11	8.3129072365444
29	36314	12	8.2184960563411
29	46035	13	8.2997584912158
29	57346	14	8.2143996677012
29	70367	15	8.2544846543041
29	83388	16	8.2019586703111
29	98239	17	8.2960824149661
29	117110	18	8.3216233912413
29	138171	19	8.2901702555246
29	161542	20	8.3239170677471
29	187343	21	8.3226716187946
29	213144	22	8.2561999432091
29	241495	23	8.3242057553609
29	275306	24	8.301168463307
29	312027	25	7.5091257122936
29	351778	26	4.7946302613774
29	394679	27	4.1131877311585
29	441020	28	6.4558387594703
29	490581	29	8.2876298883837
29	543652	30	8.2266595788579
29	600541	31	8.3020262646535
29	657242	32	8.3183464779612
29	710495	33	6.3407889815925
29	763566	34	4.0011353034026
29	816637	35	2.1013736037011
29	869708	36	0.92913060547707
29	922961	37	0.44005209032097
29	976214	38	0.00020590069532699
29	1029285	39	0
29	1082356	40	0
29	1135427	41	0
29	1184988	42	0
29	1234549	43	0
29	1284110	44	0
29	1333671	45	0
29	1383232	46	0
29	1432793	47	0
29	1482354	48	0
29	1528525	49	0
29	1574696	50	0
29	1620867	51	0.43963130403485
29	1660874	52	1.4965493228506
29	1700783	53	3.0602628199357
29	1737504	54	4.0476753373293
29	1774225	55	6.0294870732853
29	1810946	56	7.8325344985084
29	1847667	57	9.8085182295519
29	1881478	58	9.5299483956269
29	1915289	59	8.3780794596218
29	1949100	60	5.6093739590915
29	1980261	61	3.6930906481989
29	2006062	62	6.138325269997
29	2031863	63	8.2691152734676
29	2057792	64	10.095591655094
29	2083593	65	11.892546359277
21	4658	6	574.68121538232
21	7359	7	574.68121538232
21	10930	8	571.66418286573
21	15491	9	566.74660597169
21	21162	10	560.01324334641
21	28063	11	551.85204123282
21	36314	12	543.63231480797
21	46035	13	535.40212543441
21	57346	14	527.17713187436
21	70367	15	518.93432274952
21	83388	16	510.71260096574
21	98239	17	502.48697395803
21	117110	18	494.245356011
21	138171	19	485.99576130416
21	161542	20	477.77301381215
21	187343	21	469.52668582086
21	213144	22	461.28480033929
21	241495	23	453.04325055299
21	275306	24	444.80680920854
21	312027	25	436.59618194939
21	351778	26	428.51507915383
21	394679	27	422.53680677852
21	441020	28	418.65876004168
21	490581	29	413.43457844646
21	543652	30	413.43139122039
21	600541	31	414.35635916834
21	657242	32	415.28552236697
21	710495	33	416.21366364855
21	763566	34	417.05524639429
21	816637	35	417.61748089261
21	869708	36	417.93864063554
21	922961	37	418.09616099351
21	976214	38	418.16398780063
21	1029285	39	418.20199494885
21	1082356	40	418.20199494885
21	1135427	41	418.20199494885
21	1184988	42	418.20199494885
21	1234549	43	418.20199494885
21	1284110	44	418.20199494885
21	1333671	45	418.20199494885
21	1383232	46	418.20199494885
21	1432793	47	418.20199494885
21	1482354	48	418.20199494885
21	1528525	49	418.20199494885
21	1574696	50	418.20199494885
21	1620867	51	418.20199494885
21	1660874	52	418.23888651666
21	1700783	53	418.33404114863
21	1737504	54	418.6076999819
21	1774225	55	418.98518983847
21	1810946	56	419.56617317842
21	1847667	57	419.80666171936
21	1881478	58	412.5344768192
21	1915289	59	402.36824864583
21	1949100	60	393.54301240183
21	1980261	61	386.76496375216
21	2006062	62	382.48263365709
21	2031863	63	379.42617110069
21	2057792	64	386.41815819786
21	2083593	65	395.70751907685
20	4658	6	350.46733090124
20	7359	7	350.46733090124
20	10930	8	350.74168961286
20	15491	9	351.18887738878
20	21162	10	351.80118656497
20	28063	11	352.54333862495
20	36314	12	353.29081268744
20	46035	13	354.03923821502
20	57346	14	354.78719125293
20	70367	15	355.53676437793
20	83388	16	356.28441989159
20	98239	17	357.03243053309
20	117110	18	357.78189533641
20	138171	19	358.53208551923
20	161542	20	359.27983430733
20	187343	21	360.02972742611
20	213144	22	360.77921655812
20	241495	23	361.52867516313
20	275306	24	362.27766922376
20	312027	25	363.02431583896
20	351778	26	363.75918393842
20	394679	27	364.30282776646
20	441020	28	364.6554841931
20	490581	29	365.88717850645
20	543652	30	373.29512347231
20	600541	31	381.47583578619
20	657242	32	389.6936522386
20	710495	33	397.90243052979
20	763566	34	405.34565745078
20	816637	35	410.31823914279
20	869708	36	413.15867860833
20	922961	37	414.55183902534
20	976214	38	415.1517209969
20	1029285	39	415.48786836952
20	1082356	40	415.48786836952
20	1135427	41	415.48786836952
20	1184988	42	415.48786836952
20	1234549	43	415.48786836952
20	1284110	44	415.48786836952
20	1333671	45	415.48786836952
20	1383232	46	415.48786836952
20	1432793	47	415.48786836952
20	1482354	48	415.48786836952
20	1528525	49	415.48786836952
20	1574696	50	415.48786836952
20	1620867	51	415.48786836952
20	1660874	52	415.81414919227
20	1700783	53	416.6557271855
20	1737504	54	419.07605341639
20	1774225	55	422.41469441988
20	1810946	56	427.55309686272
20	1847667	57	434.50114392056
20	1881478	58	438.55249274871
20	1915289	59	439.3138939001
20	1949100	60	439.97486126409
20	1980261	61	440.48250421269
20	2006062	62	440.80322995378
20	2031863	63	438.50668160879
20	2057792	64	437.20037172626
20	2083593	65	436.50443519053
123	351778	26	4.0946999910395
123	394679	27	4.9771670667374
123	441020	28	2.61799116878
123	490581	29	1.7265215387342
123	543652	30	1.4306299479221
123	600541	31	1.4579724307377
123	657242	32	0.973
123	710495	33	0.973
123	763566	34	2.1719356781538
123	816637	35	5.4067308754511
123	869708	36	3.7116268749622
123	922961	37	1.5737224327053
123	976214	38	1.5409637439183
123	1029285	39	1.6122011615394
123	1082356	40	1.3516145030328
123	1135427	41	1.5678944142761
123	1184988	42	1.5355000539669
123	1234549	43	1.7491426847847
123	1284110	44	1.4803756999262
123	1333671	45	1.6686560851732
123	1383232	46	1.3768959465603
123	1432793	47	1.719752453955
123	1482354	48	0.973
123	1528525	49	0.973
123	1574696	50	0.973
123	1620867	51	0.973
123	1660874	52	1.1573952305015
123	1700783	53	1.8016159554323
123	1737504	54	2.0242583988349
123	1774225	55	3.3209557118719
123	1810946	56	4.1793553336401
123	1847667	57	4.8535921131042
123	1881478	58	3.6781727758635
123	1915289	59	0.973
123	1949100	60	0.973
123	1980261	61	0.973
123	2006062	62	2.7337485899239
123	2031863	63	3.18145906481
123	2057792	64	0.973
123	2083593	65	1.4250482811759
123	2109394	66	5.1064782169832
122	351778	26	1.9049964646576
122	394679	27	1.8593916270649
122	441020	28	0.53325417045782
122	490581	29	0.080772916707211
122	543652	30	-0.065119627788663
122	600541	31	-0.049994548903779
122	657242	32	-1.3862465762131
122	710495	33	-2.5182850996662
122	763566	34	0.67583098540747
122	816637	35	2.2478142105206
122	869708	36	1.074317433168
122	922961	37	0.0051349592232146
122	976214	38	-0.010883213537744
122	1029285	39	0.023888114420696
122	1082356	40	-0.10394328455441
122	1135427	41	0.0051544661819936
122	1184988	42	-0.010850144645664
122	1234549	43	0.092960051826667
122	1284110	44	-0.04024881130783
122	1333671	45	0.052242417782546
122	1383232	46	-0.091349396314472
122	1432793	47	0.078311770837754
122	1482354	48	-2.4397516221837
122	1528525	49	-2.321539201068
122	1574696	50	-1.7347036368211
122	1620867	51	-0.82469882287701
122	1660874	52	0.0004476280574256
122	1700783	53	1.1477720826938
122	1737504	54	1.0068680412261
122	1774225	55	1.6921559530555
122	1810946	56	1.7270834213547
122	1847667	57	1.6644187796456
122	1881478	58	0.93246507877665
122	1915289	59	-0.75542463677364
122	1949100	60	-1.8250437115526
122	1980261	61	-1.649495454829
122	2006062	62	0.93713736807818
122	2031863	63	1.0298307007641
122	2057792	64	-2.4532061734254
122	2083593	65	0.0815797543979
122	2109394	66	2.2380862105382
119	312027	25	3.9416026094156
119	351778	26	5.8465990740731
119	394679	27	7.7059907011381
119	441020	28	8.2392448715959
119	490581	29	8.3200177883031
119	543652	30	8.2548981605144
119	600541	31	8.2049036116106
119	657242	32	6.8186570353975
119	710495	33	4.3003719357314
119	763566	34	4.9762029211388
119	816637	35	7.2240171316594
119	869708	36	8.2983345648274
119	922961	37	8.3034695240506
119	976214	38	8.2925863105129
119	1029285	39	8.3164744249335
119	1082356	40	8.2125311403791
119	1135427	41	8.2176856065611
119	1184988	42	8.2068354619155
119	1234549	43	8.2997955137421
119	1284110	44	8.2595467024343
119	1333671	45	8.3117891202169
119	1383232	46	8.2204397239024
119	1432793	47	8.2987514947401
119	1482354	48	5.8589998725565
119	1528525	49	3.5374606714884
119	1574696	50	1.8027570346674
119	1620867	51	0.97805821179037
119	1660874	52	0.9785058398478
119	1700783	53	2.1262779225416
119	1737504	54	3.1331459637677
119	1774225	55	4.8253019168232
119	1810946	56	6.5523853381779
119	1847667	57	8.2168041178235
119	1881478	58	9.1492691966001
119	1915289	59	8.3938445598265
119	1949100	60	6.5688008482739
119	1980261	61	4.9193053934449
119	2006062	62	5.856442761523
119	2031863	63	6.8862734622871
119	2057792	64	4.4330672888617
119	2083593	65	4.5146470432596
119	2109394	66	6.7527332537978
108	275306	24	408.02094915641
108	312027	25	408.02094915641
108	351778	26	407.61682951303
108	394679	27	406.97296368474
108	441020	28	406.07973003023
108	490581	29	405.01583411828
108	543652	30	403.94520236057
108	600541	31	402.87251605797
108	657242	32	401.8022901376
108	710495	33	400.78630939841
108	763566	34	400.0938862237
108	816637	35	399.93842159592
108	869708	36	403.19046281894
108	922961	37	404.22660966414
108	976214	38	405.29970931313
108	1029285	39	406.36991620742
108	1082356	40	407.44119600202
108	1135427	41	408.51412289384
108	1184988	42	409.58466704429
108	1234549	43	410.65491580534
108	1284110	44	411.72414130342
108	1333671	45	412.74894852898
108	1383232	46	413.68880334933
108	1432793	47	414.61669466322
108	1482354	48	415.54604290627
108	1528525	49	416.34618626101
108	1574696	50	416.85569392077
108	1620867	51	417.13683370354
108	1660874	52	417.2799557294
108	1700783	53	417.37908987464
108	1737504	54	417.5563971634
108	1774225	55	417.84121132353
108	1810946	56	418.28892253261
108	1847667	57	418.93044783096
108	1881478	58	419.78065092966
108	1915289	59	417.63899341076
108	1949100	60	409.25149123824
108	1980261	61	401.87567694051
108	2006062	62	396.22161653456
108	2031863	63	390.87499385868
108	2057792	64	384.226567483
108	2083593	65	379.15765876638
108	2109394	66	375.61847737551
107	275306	24	356.24730461525
107	312027	25	356.24730461525
107	351778	26	353.15581137832
107	394679	27	348.2302728991
107	441020	28	341.39708414616
107	490581	29	333.25833842937
107	543652	30	325.06806385976
107	600541	31	316.86207213379
107	657242	32	308.67490219764
107	710495	33	300.90270493986
107	763566	34	295.6057054081
107	816637	35	291.62441675979
107	869708	36	293.84902581776
107	922961	37	301.77549268699
107	976214	38	309.98464649032
107	1029285	39	318.17167087792
107	1082356	40	326.36690289437
107	1135427	41	334.57473511483
107	1184988	42	342.76433949369
107	1234549	43	350.9516841597
107	1284110	44	359.13120091985
107	1333671	45	367.33675716082
107	1383232	46	375.57175865485
107	1432793	47	383.77832615184
107	1482354	48	391.99777919627
107	1528525	49	399.07450289194
107	1574696	50	403.58075156298
107	1620867	51	406.06724170342
107	1660874	52	407.33305866706
107	1700783	53	408.20983274826
107	1737504	54	409.77799510852
107	1774225	55	412.29698261734
107	1810946	56	416.25668371759
107	1847667	57	421.93053860034
107	1881478	58	429.45000667942
107	1915289	59	437.33831889693
107	1949100	60	438.79837243572
107	1980261	61	439.35078513028
107	2006062	62	439.77424681437
107	2031863	63	440.17468290453
107	2057792	64	440.67261777389
107	2083593	65	441.06190636231
107	2109394	66	441.22824710715
23	4658	6	4.2946323108477
23	7359	7	5.11749157018
23	10930	8	2.2541120030666
23	15491	9	1.4672051718234
23	21162	10	1.5892007118027
23	28063	11	0.973
23	36314	12	0.973
23	46035	13	0.973
23	57346	14	5.1417784677474
23	70367	15	4.9529370246161
23	83388	16	1.721839472501
23	98239	17	1.5265397745209
23	117110	18	1.546333179651
23	138171	19	1.3704605013793
23	161542	20	0.973
23	187343	21	1.2783844734041
23	213144	22	0.973
23	241495	23	0.973
23	275306	24	1.788186636267
23	312027	25	1.4779536760917
23	351778	26	2.8957516673982
23	394679	27	3.7597004956141
23	441020	28	0.973
23	490581	29	0.973
23	543652	30	0.973
23	600541	31	1.9387272644955
23	657242	32	0.973
23	710495	33	2.0128511661356
23	763566	34	4.7520945197721
23	816637	35	0.973
23	869708	36	2.8491799184432
23	922961	37	0.973
23	976214	38	2.1610076034226
23	1029285	39	4.7685682718073
23	1082356	40	4.4308192411992
23	1135427	41	1.5533605486843
23	1184988	42	1.4482101451771
23	1234549	43	1.7116317665949
23	1284110	44	1.4128805284257
23	1333671	45	1.5054797514205
23	1383232	46	1.6012402072207
23	1432793	47	0.973
23	1482354	48	0.973
23	1528525	49	1.8224632668446
23	1574696	50	0.973
23	1620867	51	0.973
23	1660874	52	0.973
23	1700783	53	2.0743761322981
23	1737504	54	3.4450603224591
23	1774225	55	4.5206640797257
23	1810946	56	0.973
23	1847667	57	0.973
23	1881478	58	5.3643916036874
23	1915289	59	4.9257392670802
23	1949100	60	1.5232731001487
23	1980261	61	0.973
23	2006062	62	0.973
23	2031863	63	1.6615516983334
23	2057792	64	5.4243597012905
23	2083593	65	3.8446208861817
23	2109394	66	1.7010260982323
23	2132765	67	1.568481012959
22	4658	6	1.9424539956544
22	7359	7	1.8580689705699
22	10930	8	0.34332667572432
22	15491	9	-0.047442472623661
22	21162	10	0.013225392308087
22	28063	11	-0.59119851892625
22	36314	12	-2.7461020942427
22	46035	13	-0.76303041427671
22	57346	14	2.3430106915021
22	70367	15	1.7079999725062
22	83388	16	0.078335737087764
22	98239	17	-0.018457541421521
22	117110	18	-0.008296177524608
22	138171	19	-0.094174111366737
22	161542	20	-0.32166368104364
22	187343	21	-0.13297927428787
22	213144	22	-2.7686577923435
22	241495	23	-1.4020050618439
22	275306	24	0.48621919009707
22	312027	25	0.15503425014115
22	351778	26	1.1653103019931
22	394679	27	1.4025501661908
22	441020	28	-0.33289226804346
22	490581	29	-1.5735144157363
22	543652	30	-1.1765590886765
22	600541	31	0.59328103954019
22	657242	32	-0.16425386641825
22	710495	33	0.58553434784953
22	763566	34	2.024245094104
22	816637	35	-1.1747407315471
22	869708	36	0.89984117082618
22	922961	37	-2.2653356714479
22	976214	38	0.68353513204559
22	1029285	39	1.9900167214638
22	1082356	40	1.4322175445825
22	1135427	41	-0.0049805634189397
22	1184988	42	-0.056033176940401
22	1234549	43	0.073389351246879
22	1284110	44	-0.073801566709299
22	1333671	45	-0.026395571546162
22	1383232	46	0.021179234826677
22	1432793	47	-2.0703508240481
22	1482354	48	-0.81260218337959
22	1528525	49	0.30925636908349
22	1574696	50	-2.3245618917654
22	1620867	51	-1.6334414490589
22	1660874	52	-0.99920264963985
22	1700783	53	1.5607652030878
22	1737504	54	2.0405394601084
22	1774225	55	2.0200396750355
22	1810946	56	-1.3877640417036
22	1847667	57	-0.73538145037592
22	1881478	58	2.4389841742348
22	1915289	59	1.675806646803
22	1949100	60	-0.020031324657612
22	1980261	61	-1.1689343221278
22	2006062	62	-2.6226901390989
22	2031863	63	0.26983384136098
22	2057792	64	2.3066366531956
22	2083593	65	1.1511970973068
22	2109394	66	0.068614520856645
22	2132765	67	0.0023265531659113
19	2707	5	4.1837425248161
19	4658	6	6.1261965204705
19	7359	7	7.9842654910403
19	10930	8	8.3275921667647
19	15491	9	8.280149694141
19	21162	10	8.2933750864491
19	28063	11	7.7021765675228
19	36314	12	4.9560744732802
19	46035	13	4.1930440590035
19	57346	14	6.5360547505056
19	70367	15	8.2440547230118
19	83388	16	8.3223904600996
19	98239	17	8.303932918678
19	117110	18	8.2956367411534
19	138171	19	8.2014626297867
19	161542	20	7.8797989487431
19	187343	21	7.7468196744552
19	213144	22	4.9781618821117
19	241495	23	3.5761568202678
19	275306	24	4.0623760103649
19	312027	25	4.217410260506
19	351778	26	5.3827205624991
19	394679	27	6.7852707286899
19	441020	28	6.4523784606465
19	490581	29	4.8788640449101
19	543652	30	3.7023049562337
19	600541	31	4.2955859957739
19	657242	32	4.1313321293556
19	710495	33	4.7168664772051
19	763566	34	6.7411115713092
19	816637	35	5.5663708397621
19	869708	36	6.4662120105882
19	922961	37	4.2008763391403
19	976214	38	4.8844114711859
19	1029285	39	6.8744281926497
19	1082356	40	8.3066457372322
19	1135427	41	8.3016651738132
19	1184988	42	8.2456319968728
19	1234549	43	8.3190213481197
19	1284110	44	8.2452197814104
19	1333671	45	8.2188242098643
19	1383232	46	8.2400034446909
19	1432793	47	6.1696526206429
19	1482354	48	5.3570504372633
19	1528525	49	5.6663068063468
19	1574696	50	3.3417449145814
19	1620867	51	1.7083034655225
19	1660874	52	0.70910081588262
19	1700783	53	2.2698660189705
19	1737504	54	4.3104054790789
19	1774225	55	6.3304451541144
19	1810946	56	4.9426811124108
19	1847667	57	4.2072996620349
19	1881478	58	6.6462838362697
19	1915289	59	8.3220904830727
19	1949100	60	8.3020591584151
19	1980261	61	7.1331248362873
19	2006062	62	4.5104346971883
19	2031863	63	4.7802685385493
19	2057792	64	7.0869051917449
19	2083593	65	8.2381022890517
19	2109394	66	8.3067168099084
19	2132765	67	8.3090433630743
11	1386	4	213.06816442235
11	2707	5	213.06816442235
11	4658	6	209.87845877502
11	7359	7	204.68240228808
11	10930	8	197.56404013863
11	15491	9	189.30563903159
11	21162	10	181.05956359486
11	28063	11	172.79091553819
11	36314	12	164.62449967865
11	46035	13	158.47409970911
11	57346	14	154.45511818033
11	70367	15	149.71671414058
11	83388	16	156.61601624012
11	98239	17	164.87379868782
11	117110	18	173.14906885153
11	138171	19	181.41252737102
11	161542	20	189.65903640769
11	187343	21	197.81642504758
11	213144	22	205.78789481037
11	241495	23	211.97725195526
11	275306	24	216.00320966686
11	312027	25	220.18428499813
11	351778	26	224.01265632802
11	394679	27	228.75585155573
11	441020	28	234.85623859355
11	490581	29	241.85047898217
11	543652	30	247.43812387473
11	600541	31	251.61912415857
11	657242	32	255.60749206166
11	710495	33	260.23686292047
11	763566	34	264.24187171087
11	816637	35	270.11098112231
11	869708	36	275.93676330406
11	922961	37	281.90947859115
11	976214	38	287.26151690262
11	1029285	39	291.27480397383
11	1082356	40	297.32672095932
11	1135427	41	305.20557834645
11	1184988	42	313.42727233287
[...]
84	2172697	69	210.2103209015
84	2191568	70	223.95074856575
84	2208369	71	237.15623978223
84	2225170	72	247.37928696522
84	2241971	73	254.58404522506
84	2258772	74	259.18863863684
84	2275573	75	261.73299950674
84	2292478	76	262.96202133814
84	2309279	77	263.4914471204
84	2326080	78	263.74781230466
84	2342985	79	263.74781230466
84	2359786	80	263.74781230466
84	2376587	81	263.74781230466
84	2389608	82	263.74781230466
84	2402629	83	263.74781230466
84	2415650	84	263.74781230466
84	2426961	85	263.74781230466
84	2438272	86	263.74781230466
84	2449583	87	263.74781230466
84	2459304	88	263.74781230466
84	2469025	89	263.74781230466
84	2477276	90	263.74781230466
84	2485527	91	263.74781230466
84	2493778	92	264.22465254789
84	2500679	93	265.32882989243
84	2507580	94	266.24066770943
84	2513251	95	266.87853221662
84	2518922	96	267.72643575512
84	2524593	97	270.13995660235
84	2530264	98	274.45404317827
84	2535935	99	280.7239460834
84	2540496	100	288.99312978015
84	2545057	101	299.23907456923
84	2549618	102	311.2881021816
84	2554179	103	324.86839402889
84	2556880	104	338.63551105104
84	2559581	105	352.41186270164
84	2562282	106	366.20744218397
84	2564233	107	379.97655190294
84	2566184	108	392.65728613415
84	2568135	109	402.164899179
84	2570086	110	408.70545692548
84	2571407	111	412.80219771763
84	2572218	112	414.94795885322
84	2572639	113	408.24717430646
84	2573060	114	399.38638319504
83	138171	19	178.16270857346
83	161542	20	178.16270857346
83	187343	21	178.13281534202
83	213144	22	174.83416132733
83	241495	23	174.89714847176
83	275306	24	174.94138138758
83	312027	25	174.9669386071
83	351778	26	175.02758446663
83	394679	27	178.11958988969
83	441020	28	184.45930441974
83	490581	29	192.49593985519
83	543652	30	200.74981477662
83	600541	31	209.00154109411
83	657242	32	217.25288676946
83	710495	33	225.51252716857
83	763566	34	232.15145159761
83	816637	35	236.32199577797
83	869708	36	241.31331566151
83	922961	37	248.38460413978
83	976214	38	256.63507131537
83	1029285	39	264.91293463432
83	1082356	40	273.18414029744
83	1135427	41	281.44997160759
83	1184988	42	289.69600403488
83	1234549	43	297.98271132312
83	1284110	44	306.24433802934
83	1333671	45	314.53006231331
83	1383232	46	322.80554305814
83	1432793	47	331.07097841756
83	1482354	48	339.32389243352
83	1528525	49	347.59396977288
83	1574696	50	355.83982535627
83	1620867	51	364.11270980469
83	1660874	52	372.38160797864
83	1700783	53	380.64429468243
83	1737504	54	388.90124677976
83	1774225	55	397.1595557652
83	1810946	56	405.43461209577
83	1847667	57	413.68532198495
83	1881478	58	421.94829083959
83	1915289	59	430.21326816798
83	1949100	60	438.46476034062
83	1980261	61	446.41973518911
83	2006062	62	451.9743346536
83	2031863	63	455.88984456417
83	2057792	64	460.97176661544
83	2083593	65	460.21476433521
83	2109394	66	458.97878554309
83	2132765	67	457.5071160197
83	2153826	68	455.8136457337
83	2172697	69	454.1125477969
83	2191568	70	452.58769726612
83	2208369	71	451.14186087336
83	2225170	72	450.02402151298
83	2241971	73	449.23621703349
83	2258772	74	448.732727647
83	2275573	75	448.45451444144
83	2292478	76	448.32012701729
83	2309279	77	448.26223694134
83	2326080	78	448.2342046836
83	2342985	79	448.2342046836
83	2359786	80	448.2342046836
83	2376587	81	448.2342046836
83	2389608	82	448.2342046836
83	2402629	83	448.2342046836
83	2415650	84	448.2342046836
83	2426961	85	448.2342046836
83	2438272	86	448.2342046836
83	2449583	87	448.2342046836
83	2459304	88	448.2342046836
83	2469025	89	448.2342046836
83	2477276	90	448.2342046836
83	2485527	91	448.2342046836
83	2493778	92	448.18206457479
83	2500679	93	448.0613282743
83	2507580	94	447.96162334446
83	2513251	95	447.89187603332
83	2518922	96	447.79916199882
83	2524593	97	447.53525549895
83	2530264	98	447.0897644751
83	2535935	99	446.47715182834
83	2540496	100	445.72923399208
83	2545057	101	444.81909097422
83	2549618	102	443.74919980653
83	2554179	103	442.54487987608
83	2556880	104	441.32399201881
83	2559581	105	440.10342702826
83	2562282	106	438.88957172997
83	2564233	107	437.6855720342
83	2566184	108	436.73295129352
83	2568135	109	436.02066383136
83	2570086	110	435.53066100348
83	2571407	111	435.22374305382
83	2572218	112	437.81827167097
83	2572639	113	438.87359089976
83	2573060	114	439.53722115076
86	138171	19	3.6709571891863
86	161542	20	4.40221111498
86	187343	21	2.2209591913585
86	213144	22	0.973
86	241495	23	1.4568825370026
86	275306	24	5.1801031755906
86	312027	25	5.147263287667
86	351778	26	6.1569230714944
86	394679	27	7.4221855992423
86	441020	28	7.5621788972951
86	490581	29	1.8212523376659
86	543652	30	2.2009272925496
86	600541	31	1.9035158040768
86	657242	32	2.09358984509
86	710495	33	1.8288270294378
86	763566	34	2.1694715847954
86	816637	35	2.1443812670127
86	869708	36	1.9818721038982
86	922961	37	1.8137383359065
86	976214	38	0.973
86	1029285	39	0.973
86	1082356	40	0.973
86	1135427	41	0.973
86	1184988	42	5.1084080604475
86	1234549	43	4.6976927332579
86	1284110	44	2.7956642174396
86	1333671	45	1.3806505871861
86	1383232	46	1.5581925526038
86	1432793	47	1.6812599800337
86	1482354	48	1.6281279997261
86	1528525	49	1.5121479969992
86	1574696	50	1.6599027807154
86	1620867	51	1.5210450815326
86	1660874	52	1.3914117731374
86	1700783	53	1.6356519202738
86	1737504	54	1.5090969431168
86	1774225	55	1.5183675918197
86	1810946	56	1.7692184356878
86	1847667	57	1.4370864147239
86	1881478	58	0.973
86	1915289	59	0.973
86	1949100	60	0.973
86	1980261	61	4.987296443642
86	2006062	62	4.8323841171141
86	2031863	63	1.3502258587705
86	2057792	64	1.7802614412099
86	2083593	65	1.3472222660011
86	2109394	66	1.7795772754978
86	2132765	67	1.5812060850164
86	2153826	68	1.4023115666507
86	2172697	69	1.4913181564553
86	2191568	70	1.8006954377688
86	2208369	71	1.4122269936551
86	2225170	72	1.484957110565
86	2241971	73	1.6620556456032
86	2258772	74	1.6626014196033
86	2275573	75	0.973
86	2292478	76	0.973
86	2309279	77	2.7642739074515
86	2326080	78	4.7850484918345
86	2342985	79	3.9696631054189
86	2359786	80	1.4250124651776
86	2376587	81	1.7263967293987
86	2389608	82	1.5054347751648
86	2402629	83	1.4569281016113
86	2415650	84	1.6516306102368
86	2426961	85	0.973
86	2438272	86	0.973
86	2449583	87	2.3027563968578
86	2459304	88	5.0275295606747
86	2469025	89	3.8330620274322
86	2477276	90	1.6182494369022
86	2485527	91	1.526450203251
86	2493778	92	1.7740861508185
86	2500679	93	1.4066460299378
86	2507580	94	0.973
86	2513251	95	0.973
86	2518922	96	2.843433180447
86	2524593	97	5.0443697562847
86	2530264	98	3.6152061923031
86	2535935	99	1.6195797132521
86	2540496	100	1.4747231567415
86	2545057	101	1.3924585465888
86	2549618	102	1.7871570403214
86	2554179	103	1.451040184627
86	2556880	104	1.4713725579388
86	2559581	105	1.5869692732315
86	2562282	106	1.5310584270393
86	2564233	107	1.6969194148703
86	2566184	108	1.5347739451267
86	2568135	109	1.6435918221987
86	2570086	110	1.6003391619211
86	2571407	111	1.3545714165184
86	2572218	112	1.7359719874572
86	2572639	113	1.3637081220306
86	2573060	114	1.7477382555118
86	2573481	115	1.5349787643576
86	2573632	116	1.5732706726983
86	2573783	117	1.4768949421978
86	2573934	118	1.6086146039986
86	2574085	119	1.5378111973314
86	2574236	120	1.5378978088711
86	2574387	121	1.643455732706
86	2574538	122	1.4388984927627
85	138171	19	2.0009971342445
85	161542	20	1.8382184388186
85	187343	21	0.43187979081629
85	213144	22	-2.6142198602308
85	241495	23	0.1067216573807
85	275306	24	2.2558425318869
85	312027	25	1.7296334332949
85	351778	26	1.7840678913263
85	394679	27	1.8849477662379
85	441020	28	1.6548175862583
85	490581	29	-0.059835399764124
85	543652	30	0.052364907863085
85	600541	31	-0.035603152413387
85	657242	32	0.020733597571962
85	710495	33	-0.057048403250519
85	763566	34	0.043895517473574
85	816637	35	0.035214938826392
85	869708	36	-0.012984816017561
85	922961	37	-0.061699677309953
85	976214	38	-2.0269253343592
85	1029285	39	-3.2501973071555
85	1082356	40	-2.7656360946852
85	1135427	41	-2.3672494614556
85	1184988	42	2.5682845000084
85	1234549	43	1.7157851887192
85	1284110	44	0.61658105816273
85	1333671	45	-0.089139217068441
85	1383232	46	0.00060681865084966
85	1432793	47	0.060337288153823
85	1482354	48	0.032448693618644
85	1528525	49	-0.024772658227011
85	1574696	50	0.047440339396708
85	1620867	51	-0.021131852683611
85	1660874	52	-0.083957310901024
85	1700783	53	0.037909380174241
85	1737504	54	-0.024933711080811
85	1774225	55	-0.019643712011167
85	1810946	56	0.10237135172123
85	1847667	57	-0.061787619453389
85	1881478	58	-0.75560897660166
85	1915289	59	-2.6478295900706
85	1949100	60	-0.36965048537443
85	1980261	61	2.1939340118761
85	2006062	62	1.6330699740505
85	2031863	63	-0.10440399713581
85	2057792	64	0.10807889360003
85	2083593	65	-0.10596783631016
85	2109394	66	0.10765845196554
85	2132765	67	0.00832891928032
85	2153826	68	-0.078999232992064
85	2172697	69	-0.033193859928287
85	2191568	70	0.11754802153679
85	2208369	71	-0.074256389564834
85	2225170	72	-0.036606313935481
85	2241971	73	0.050823835509362
85	2258772	74	0.049145459409338
85	2275573	75	-1.7964524616773
85	2292478	76	-2.483676822878
85	2309279	77	1.1212625411444
85	2326080	78	1.9322689974867
85	2342985	79	1.204543585978
85	2359786	80	-0.067164758413565
85	2376587	81	0.081328421772923
85	2389608	82	-0.028206656863913
85	2402629	83	-0.051118035316467
85	2415650	84	0.04530596634606
85	2426961	85	-1.5300765987069
85	2438272	86	-2.5602321490889
85	2449583	87	0.78658176029957
85	2459304	88	2.0853693214664
85	2469025	89	1.1511884088859
85	2477276	90	0.029948809966445
85	2485527	91	-0.015805502643342
85	2493778	92	0.1043527376093
85	2500679	93	-0.07696118392516
85	2507580	94	-1.6789845798203
85	2513251	95	-2.4732055643111
85	2518922	96	1.1586233171169
85	2524593	97	2.0232915790915
85	2530264	98	1.0256126494259
85	2535935	99	0.027122536143287
85	2540496	100	-0.043806558598298
85	2545057	101	-0.083050906346179
85	2549618	102	0.11133982680738
85	2554179	103	-0.05494757720502
85	2556880	104	-0.043495310288854
85	2559581	105	0.014383221471217
85	2562282	106	-0.013379059289583
85	2564233	107	0.067546086215881
85	2566184	108	-0.013254012775143
85	2568135	109	0.039809048408642
85	2570086	110	0.017582191545516
85	2571407	111	-0.10270679767942
85	2572218	112	0.085903851408512
85	2572639	113	-0.097836108796765
85	2573060	114	0.092037906104233
85	2573481	115	-0.013823571719694
85	2573632	116	0.0051634157588705
85	2573783	117	-0.041844412130304
85	2573934	118	0.023509992996697
85	2574085	119	-0.011606958801858
85	2574236	120	-0.011201094258576
85	2574387	121	0.040299845095722
85	2574538	122	-0.060432239212096
81	117110	18	2.8072642422876
81	138171	19	4.8082613765321
81	161542	20	6.6464798153507
81	187343	21	7.078359606167
81	213144	22	4.4641397459362
81	241495	23	4.5708614033169
81	275306	24	6.8267039352038
81	312027	25	8.5563373684987
81	351778	26	10.340405259825
81	394679	27	12.225353026063
81	441020	28	13.880170612321
81	490581	29	13.820335212557
81	543652	30	13.87270012042
81	600541	31	13.837096968007
81	657242	32	13.857830565579
81	710495	33	13.800782162328
81	763566	34	13.844677679802
81	816637	35	13.879892618628
81	869708	36	13.866907802611
81	922961	37	13.805208125301
81	976214	38	11.778282790942
81	1029285	39	8.528085483786
81	1082356	40	5.7624493891008
81	1135427	41	3.3951999276453
81	1184988	42	5.9634844276537
81	1234549	43	7.6792696163729
81	1284110	44	8.2958506745356
81	1333671	45	8.2067114574672
81	1383232	46	8.207318276118
81	1432793	47	8.2676555642718
81	1482354	48	8.3001042578905
81	1528525	49	8.2753315996635
81	1574696	50	8.3227719390602
81	1620867	51	8.3016400863766
81	1660874	52	8.2176827754756
81	1700783	53	8.2555921556498
81	1737504	54	8.230658444569
81	1774225	55	8.2110147325578
81	1810946	56	8.313386084279
81	1847667	57	8.2515984648257
81	1881478	58	7.495989488224
81	1915289	59	4.8481598981534
81	1949100	60	4.4785094127789
81	1980261	61	6.672443424655
81	2006062	62	8.3055133987055
81	2031863	63	8.2011094015697
81	2057792	64	8.3091882951697
81	2083593	65	8.2032204588596
81	2109394	66	8.3108789108251
81	2132765	67	8.3192078301054
81	2153826	68	8.2402085971134
81	2172697	69	8.2070147371851
81	2191568	70	8.3245627587219
81	2208369	71	8.250306369157
81	2225170	72	8.2137000552216
81	2241971	73	8.2645238907309
81	2258772	74	8.3136693501403
81	2275573	75	6.5172168884629
81	2292478	76	4.0335400655849
81	2309279	77	5.1548026067293
81	2326080	78	7.087071604216
81	2342985	79	8.291615190194
81	2359786	80	8.2244504317804
81	2376587	81	8.3057788535533
81	2389608	82	8.2775721966894
81	2402629	83	8.226454161373
81	2415650	84	8.271760127719
81	2426961	85	6.7416835290121
81	2438272	86	4.1814513799232
81	2449583	87	4.9680331402227
81	2459304	88	7.0534024616892
81	2469025	89	8.204590870575
81	2477276	90	8.2345396805415
81	2485527	91	8.2187341778982
81	2493778	92	8.3230869155074
81	2500679	93	8.2461257315823
81	2507580	94	6.567141151762
81	2513251	95	4.0939355874509
81	2518922	96	5.2525589045677
81	2524593	97	7.2758504836592
81	2530264	98	8.3014631330851
81	2535935	99	8.3285856692283
81	2540496	100	8.28477911063
81	2545057	101	8.2017282042839
81	2549618	102	8.3130680310912
81	2554179	103	8.2581204538862
81	2556880	104	8.2146251435974
81	2559581	105	8.2290083650686
81	2562282	106	8.215629305779
81	2564233	107	8.2831753919949
81	2566184	108	8.2699213792197
81	2568135	109	8.3097304276284
81	2570086	110	8.3273126191739
81	2571407	111	8.2246058214945
81	2572218	112	8.310509672903
81	2572639	113	8.2126735641062
81	2573060	114	8.3047114702105
81	2573481	115	8.2908878984908
81	2573632	116	8.2960513142496
81	2573783	117	8.2542069021193
81	2573934	118	8.277716895116
81	2574085	119	8.2661099363142
81	2574236	120	8.2549088420556
81	2574387	121	8.2952086871513
81	2574538	122	8.2347764479392
73	98239	17	385.78366383498
73	117110	18	385.78366383498
73	138171	19	387.64974023682
73	161542	20	391.55164861824
73	187343	21	397.30317579644
73	213144	22	404.68017404017
73	241495	23	410.30738065625
73	275306	24	414.24602847093
73	312027	25	412.72356011869
73	351778	26	405.00761385541
73	394679	27	395.55627938816
73	441020	28	384.1855040045
73	490581	29	372.06109772873
73	543652	30	358.3071326822
73	600541	31	344.54577360537
73	657242	32	330.78190566832
73	710495	33	317.00860924323
73	763566	34	303.22818952266
73	816637	35	289.45839743509
73	869708	36	276.0117019767
73	922961	37	262.30022480215
73	976214	38	248.55120061711
73	1029285	39	235.5469269103
73	1082356	40	225.63862359427
73	1135427	41	218.71546518288
73	1184988	42	214.35684596628
73	1234549	43	210.35912117492
73	1284110	44	209.62587878181
73	1333671	45	209.64596986868
73	1383232	46	209.66615297576
73	1432793	47	209.68636422554
73	1482354	48	209.70660564471
73	1528525	49	209.72680944065
73	1574696	50	209.7470660065
73	1620867	51	209.76725413387
73	1660874	52	209.79463808006
73	1700783	53	209.84882034954
73	1737504	54	209.91233675439
73	1774225	55	209.97588702073
73	1810946	56	210.03934328546
73	1847667	57	210.10284145007
73	1881478	58	210.16636479337
73	1915289	59	210.22881415059
73	1949100	60	210.26276352372
73	1980261	61	210.2150564795
73	2006062	62	210.0824319514
73	2031863	63	210.03412629349
73	2057792	64	210.04196328419
73	2083593	65	210.04980880337
73	2109394	66	211.01422346277
73	2132765	67	212.00225134247
73	2153826	68	212.99020114228
73	2172697	69	213.97987075593
73	2191568	70	214.96865179573
73	2208369	71	215.9571722941
73	2225170	72	216.9425087401
73	2241971	73	217.9318449305
73	2258772	74	218.91995715287
73	2275573	75	219.90855215334
73	2292478	76	220.82366294922
73	2309279	77	221.43719346992
73	2326080	78	221.93090074156
73	2342985	79	219.38893514218
73	2359786	80	211.4713125769
73	2376587	81	203.22375596878
73	2389608	82	194.97568357044
73	2402629	83	186.71325847476
73	2415650	84	178.45730892414
73	2426961	85	170.20551645034
73	2438272	86	162.40857600908
73	2449583	87	157.09370896912
73	2459304	88	153.02724944366
73	2469025	89	148.23380906288
73	2477276	90	148.27277550045
73	2485527	91	148.39988466031
73	2493778	92	148.52679618139
73	2500679	93	148.65418530644
73	2507580	94	148.76915205518
73	2513251	95	148.87422799421
73	2518922	96	148.94474859161
73	2524593	97	149.00238143767
73	2530264	98	149.09537370762
73	2535935	99	149.21564427879
73	2540496	100	149.34029158207
73	2545057	101	149.46494127121
73	2549618	102	149.58937756507
73	2554179	103	149.71394479553
73	2556880	104	149.83851196818
73	2559581	105	149.96289395774
73	2562282	106	150.08668093877
73	2564233	107	150.20563379968
73	2566184	108	150.31313694597
73	2568135	109	150.42003019925
73	2570086	110	150.52712680078
73	2571407	111	150.63412455649
73	2572218	112	150.74098742078
73	2572639	113	150.84817075479
73	2573060	114	150.95489730289
73	2573481	115	151.06170873272
73	2573632	116	151.16848848493
73	2573783	117	151.27552001962
73	2573934	118	151.38242196992
73	2574085	119	151.4894427935
73	2574236	120	151.5964324471
73	2574387	121	151.7035196448
73	2574538	122	151.81047219575
72	98239	17	437.24790651521
72	117110	18	437.24790651521
72	138171	19	437.10810456721
72	161542	20	436.81578299234
72	187343	21	436.38489243359
72	213144	22	435.83222549894
72	241495	23	435.41064873717
72	275306	24	435.32307752598
72	312027	25	438.53833132724
72	351778	26	439.11621825529
72	394679	27	439.82407733762
72	441020	28	440.67569322914
72	490581	29	444.9912978761
72	543652	30	446.21107912758
72	600541	31	447.43203127157
72	657242	32	448.65234620766
72	710495	33	449.87349708063
72	763566	34	451.0942410491
72	816637	35	452.31262082191
72	869708	36	451.00198196035
72	922961	37	451.71106916226
72	976214	38	453.2148686825
72	1029285	39	454.63727913816
72	1082356	40	455.72228826169
72	1135427	41	456.48040898129
72	1184988	42	456.95769974088
72	1234549	43	455.24919285013
72	1284110	44	448.46447596749
72	1333671	45	440.24345436128
72	1383232	46	431.98477923122
72	1432793	47	423.7145884638
72	1482354	48	415.43205275539
72	1528525	49	407.16491200455
72	1574696	50	398.87617846706
72	1620867	51	390.61544909751
72	1660874	52	382.36503806859
72	1700783	53	374.12407143304
72	1737504	54	365.85175009637
72	1774225	55	357.57501866916
72	1810946	56	349.31052993079
72	1847667	57	341.040584188
72	1881478	58	332.76735919336
72	1915289	59	324.63400921343
72	1949100	60	318.65972383404
72	1980261	61	314.63642977097
72	2006062	62	308.83224015774
72	2031863	63	301.2008866638
72	2057792	64	292.94069846227
72	2083593	65	284.67152124455
72	2109394	66	276.46230032872
72	2132765	67	268.25690932448
72	2153826	68	260.0521667594
72	2172697	69	251.83314145471
72	2191568	70	243.62149559342
72	2208369	71	235.41201348118
72	2225170	72	227.22897434197
72	2241971	73	219.01271805641
72	2258772	74	210.80662660169
72	2275573	75	202.59652576309
72	2292478	76	194.99669781625
72	2309279	77	189.9014389487
72	2326080	78	185.80129027005
72	2342985	79	181.18724602437
72	2359786	80	180.88950839313
72	2376587	81	180.55787141229
72	2389608	82	180.22621369136
72	2402629	83	179.89397884371
72	2415650	84	179.56200437988
72	2426961	85	179.23019707347
72	2438272	86	178.91667951784
72	2449583	87	178.70296695515
72	2459304	88	178.53945327178
72	2469025	89	180.93084407784
72	2477276	90	188.86491854921
72	2485527	91	197.13209830675
72	2493778	92	205.38642363762
72	2500679	93	213.67181233091
72	2507580	94	221.92485038269
72	2513251	95	229.61351047259
72	2518922	96	234.77367280707
72	2524593	97	238.99080726649
72	2530264	98	245.39464444548
72	2535935	99	253.46903224122
72	2540496	100	261.73273752345
72	2545057	101	269.99660098027
72	2549618	102	278.24631703348
72	2554179	103	286.5047137517
72	2556880	104	294.76310663739
72	2559581	105	303.0092224948
72	2562282	106	311.26813374899
72	2564233	107	319.52686094944
72	2566184	108	327.79920167461
72	2568135	109	336.05864628988
72	2570086	110	344.3338032492
72	2571407	111	352.6013225745
72	2572218	112	360.85841908827
72	2572639	113	369.14027770669
72	2573060	114	377.38684131985
72	2573481	115	385.63996358781
72	2573632	116	393.89063818494
72	2573783	117	402.16076754924
72	2573934	118	410.42088416701
72	2574085	119	418.69018590452
72	2574236	120	426.95707919427
72	2574387	121	435.23150953784
72	2574538	122	443.49553597479

