version 2
run WithBeaconing-0-20200409-01:18:13-3376
attr configname WithBeaconing
attr datetime 20200409-01:18:13
attr experiment WithBeaconing
attr inifile omnetpp.ini
attr iterationvars ""
attr iterationvarsf ""
attr measurement ""
attr network veins_myproject.src.Scenario
attr processid 3376
attr repetition 0
attr replication #0
attr resultdir results
attr runnumber 0
attr seedset 0
param *.rsu[*].appl.sendBeacons true
param *.node[*].appl.sendBeacons true
param **.debug false
param **.coreDebug false
param *.playgroundSizeX 6000m
param *.playgroundSizeY 6000m
param *.playgroundSizeZ 3m
param *.annotations.draw true
param *.manager.updateInterval 1s
param *.manager.host "\"localhost\""
param *.manager.port 9999
param *.manager.moduleType "\"veins_myproject.src.car.MyCar\""
param *.manager.autoShutdown true
param *.manager.launchConfig "xmldoc(\"sumo.launchd.xml\")"
param *.rsu[0].mobility.x 289
param *.rsu[0].mobility.y 432
param *.rsu[0].mobility.z 3
param *.rsu[*].applType "\"veins_myproject.src.MyRSUApp\""
param *.rsu[*].appl.headerLength "80 bit"
param *.rsu[*].appl.sendBeacons true
param *.rsu[*].appl.dataOnSch true
param *.rsu[*].appl.beaconInterval 1s
param *.rsu[*].appl.beaconUserPriority 7
param *.rsu[*].appl.dataUserPriority 5
param *.connectionManager.sendDirect true
param *.connectionManager.maxInterfDist 2600m
param *.connectionManager.drawMaxIntfDist false
param *.**.nic.mac1609_4.useServiceChannel false
param *.**.nic.mac1609_4.txPower 50mW
param *.**.nic.mac1609_4.bitrate 6Mbps
param *.**.nic.phy80211p.sensitivity -89dBm
param *.**.nic.phy80211p.useThermalNoise true
param *.**.nic.phy80211p.thermalNoise -110dBm
param *.**.nic.phy80211p.decider "xmldoc(\"config.xml\")"
param *.**.nic.phy80211p.analogueModels "xmldoc(\"config.xml\")"
param *.**.nic.phy80211p.usePropagationDelay true
param *.node[*].applType "\"veins_myproject.src.MyApplicaton\""
param *.node[*].appl.headerLength "80 bit"
param *.node[*].appl.sendBeacons true
param *.node[*].appl.dataOnSch false
param *.node[*].appl.beaconInterval 0.1s
param *.node[*].veinsmobilityType.debug true
param *.node[*].veinsmobility.x 0
param *.node[*].veinsmobility.y 0
param *.node[*].veinsmobility.z 1.895

vector 0 Scenario.node[0].veinsmobility posx ETV
vector 1 Scenario.node[0].veinsmobility posy ETV
vector 2 Scenario.node[1].veinsmobility posx ETV
vector 3 Scenario.node[1].veinsmobility posy ETV
vector 4 Scenario.node[0].veinsmobility speed ETV
vector 5 Scenario.node[2].veinsmobility posx ETV
vector 6 Scenario.node[2].veinsmobility posy ETV
vector 7 Scenario.node[0].veinsmobility acceleration ETV
vector 8 Scenario.node[0].veinsmobility co2emission ETV
vector 9 Scenario.node[1].veinsmobility speed ETV
vector 10 Scenario.node[3].veinsmobility posx ETV
vector 11 Scenario.node[3].veinsmobility posy ETV
vector 12 Scenario.node[1].veinsmobility acceleration ETV
vector 13 Scenario.node[1].veinsmobility co2emission ETV
vector 14 Scenario.node[2].veinsmobility speed ETV
vector 15 Scenario.node[4].veinsmobility posx ETV
vector 16 Scenario.node[4].veinsmobility posy ETV
vector 17 Scenario.node[2].veinsmobility acceleration ETV
vector 18 Scenario.node[2].veinsmobility co2emission ETV
vector 19 Scenario.node[3].veinsmobility speed ETV
vector 20 Scenario.node[5].veinsmobility posx ETV
vector 21 Scenario.node[5].veinsmobility posy ETV
vector 22 Scenario.node[3].veinsmobility acceleration ETV
vector 23 Scenario.node[3].veinsmobility co2emission ETV
vector 24 Scenario.node[4].veinsmobility speed ETV
vector 25 Scenario.node[6].veinsmobility posx ETV
vector 26 Scenario.node[6].veinsmobility posy ETV
vector 27 Scenario.node[4].veinsmobility acceleration ETV
vector 28 Scenario.node[4].veinsmobility co2emission ETV
vector 29 Scenario.node[5].veinsmobility speed ETV
vector 30 Scenario.node[7].veinsmobility posx ETV
vector 31 Scenario.node[7].veinsmobility posy ETV
vector 32 Scenario.node[5].veinsmobility acceleration ETV
vector 33 Scenario.node[5].veinsmobility co2emission ETV
vector 34 Scenario.node[6].veinsmobility speed ETV
vector 35 Scenario.node[8].veinsmobility posx ETV
vector 36 Scenario.node[8].veinsmobility posy ETV
vector 37 Scenario.node[6].veinsmobility acceleration ETV
vector 38 Scenario.node[6].veinsmobility co2emission ETV
vector 39 Scenario.node[7].veinsmobility speed ETV
vector 40 Scenario.node[9].veinsmobility posx ETV
vector 41 Scenario.node[9].veinsmobility posy ETV
vector 42 Scenario.node[7].veinsmobility acceleration ETV
vector 43 Scenario.node[7].veinsmobility co2emission ETV
vector 44 Scenario.node[8].veinsmobility speed ETV
vector 45 Scenario.node[10].veinsmobility posx ETV
vector 46 Scenario.node[10].veinsmobility posy ETV
vector 47 Scenario.node[8].veinsmobility acceleration ETV
vector 48 Scenario.node[8].veinsmobility co2emission ETV
vector 49 Scenario.node[9].veinsmobility speed ETV
vector 50 Scenario.node[11].veinsmobility posx ETV
vector 51 Scenario.node[11].veinsmobility posy ETV
vector 52 Scenario.node[9].veinsmobility acceleration ETV
vector 53 Scenario.node[9].veinsmobility co2emission ETV
vector 54 Scenario.node[10].veinsmobility speed ETV
vector 55 Scenario.node[12].veinsmobility posx ETV
vector 56 Scenario.node[12].veinsmobility posy ETV
vector 57 Scenario.node[10].veinsmobility acceleration ETV
vector 58 Scenario.node[10].veinsmobility co2emission ETV
vector 59 Scenario.node[11].veinsmobility speed ETV
vector 60 Scenario.node[13].veinsmobility posx ETV
vector 61 Scenario.node[13].veinsmobility posy ETV
vector 62 Scenario.node[11].veinsmobility acceleration ETV
vector 63 Scenario.node[11].veinsmobility co2emission ETV
vector 64 Scenario.node[12].veinsmobility speed ETV
vector 65 Scenario.node[14].veinsmobility posx ETV
vector 66 Scenario.node[14].veinsmobility posy ETV
vector 67 Scenario.node[12].veinsmobility acceleration ETV
vector 68 Scenario.node[12].veinsmobility co2emission ETV
vector 69 Scenario.node[13].veinsmobility speed ETV
vector 70 Scenario.node[15].veinsmobility posx ETV
vector 71 Scenario.node[15].veinsmobility posy ETV
vector 72 Scenario.node[13].veinsmobility acceleration ETV
vector 73 Scenario.node[13].veinsmobility co2emission ETV
vector 74 Scenario.node[14].veinsmobility speed ETV
vector 75 Scenario.node[16].veinsmobility posx ETV
vector 76 Scenario.node[16].veinsmobility posy ETV
vector 77 Scenario.node[14].veinsmobility acceleration ETV
vector 78 Scenario.node[14].veinsmobility co2emission ETV
vector 79 Scenario.node[15].veinsmobility speed ETV
vector 80 Scenario.node[17].veinsmobility posx ETV
vector 81 Scenario.node[17].veinsmobility posy ETV
vector 82 Scenario.node[15].veinsmobility acceleration ETV
vector 83 Scenario.node[15].veinsmobility co2emission ETV
vector 84 Scenario.node[16].veinsmobility speed ETV
vector 85 Scenario.node[18].veinsmobility posx ETV
vector 86 Scenario.node[18].veinsmobility posy ETV
vector 87 Scenario.node[16].veinsmobility acceleration ETV
vector 88 Scenario.node[16].veinsmobility co2emission ETV
vector 89 Scenario.node[17].veinsmobility speed ETV
vector 90 Scenario.node[19].veinsmobility posx ETV
vector 91 Scenario.node[19].veinsmobility posy ETV
vector 92 Scenario.node[17].veinsmobility acceleration ETV
vector 93 Scenario.node[17].veinsmobility co2emission ETV
vector 94 Scenario.node[18].veinsmobility speed ETV
vector 95 Scenario.node[20].veinsmobility posx ETV
vector 96 Scenario.node[20].veinsmobility posy ETV
vector 97 Scenario.node[18].veinsmobility acceleration ETV
vector 98 Scenario.node[18].veinsmobility co2emission ETV
vector 99 Scenario.node[19].veinsmobility speed ETV
vector 100 Scenario.node[19].veinsmobility acceleration ETV
vector 101 Scenario.node[19].veinsmobility co2emission ETV
vector 102 Scenario.node[20].veinsmobility speed ETV
vector 103 Scenario.node[21].veinsmobility posx ETV
vector 104 Scenario.node[21].veinsmobility posy ETV
vector 105 Scenario.node[22].veinsmobility posx ETV
vector 106 Scenario.node[22].veinsmobility posy ETV
vector 107 Scenario.node[20].veinsmobility acceleration ETV
vector 108 Scenario.node[20].veinsmobility co2emission ETV
vector 109 Scenario.node[23].veinsmobility posx ETV
vector 110 Scenario.node[23].veinsmobility posy ETV
vector 111 Scenario.node[21].veinsmobility speed ETV
vector 112 Scenario.node[22].veinsmobility speed ETV
vector 113 Scenario.node[24].veinsmobility posx ETV
vector 114 Scenario.node[24].veinsmobility posy ETV
vector 115 Scenario.node[21].veinsmobility acceleration ETV
vector 116 Scenario.node[21].veinsmobility co2emission ETV
vector 117 Scenario.node[22].veinsmobility acceleration ETV
vector 118 Scenario.node[22].veinsmobility co2emission ETV
vector 119 Scenario.node[23].veinsmobility speed ETV
vector 120 Scenario.node[25].veinsmobility posx ETV
vector 121 Scenario.node[25].veinsmobility posy ETV
vector 122 Scenario.node[23].veinsmobility acceleration ETV
vector 123 Scenario.node[23].veinsmobility co2emission ETV
vector 124 Scenario.node[24].veinsmobility speed ETV
vector 125 Scenario.node[26].veinsmobility posx ETV
vector 126 Scenario.node[26].veinsmobility posy ETV
vector 127 Scenario.node[24].veinsmobility acceleration ETV
vector 128 Scenario.node[24].veinsmobility co2emission ETV
vector 129 Scenario.node[25].veinsmobility speed ETV
vector 130 Scenario.node[27].veinsmobility posx ETV
vector 131 Scenario.node[27].veinsmobility posy ETV
vector 132 Scenario.node[25].veinsmobility acceleration ETV
vector 133 Scenario.node[25].veinsmobility co2emission ETV
vector 134 Scenario.node[26].veinsmobility speed ETV
vector 135 Scenario.node[28].veinsmobility posx ETV
vector 136 Scenario.node[28].veinsmobility posy ETV
vector 137 Scenario.node[26].veinsmobility acceleration ETV
vector 138 Scenario.node[26].veinsmobility co2emission ETV
vector 139 Scenario.node[27].veinsmobility speed ETV
vector 140 Scenario.node[29].veinsmobility posx ETV
vector 141 Scenario.node[29].veinsmobility posy ETV
vector 142 Scenario.node[27].veinsmobility acceleration ETV
vector 143 Scenario.node[27].veinsmobility co2emission ETV
vector 144 Scenario.node[28].veinsmobility speed ETV
vector 145 Scenario.node[30].veinsmobility posx ETV
vector 146 Scenario.node[30].veinsmobility posy ETV
vector 147 Scenario.node[28].veinsmobility acceleration ETV
vector 148 Scenario.node[28].veinsmobility co2emission ETV
vector 149 Scenario.node[29].veinsmobility speed ETV
43	21162	10	4.1279961647952
43	28063	11	2.640485509089
43	36314	12	0.973
43	46035	13	2.968848445251
43	57346	14	5.6277575875368
43	70367	15	2.8456450254647
43	85218	16	1.4630862177484
43	102019	17	0.973
43	120890	18	0.973
43	141951	19	5.015795422243
43	165322	20	5.7700089055731
43	191123	21	1.8100538846137
43	219474	22	0.973
43	247825	23	0.973
43	281636	24	0.973
43	318357	25	5.3464394979543
43	358108	26	0.973
43	401009	27	0.973
43	447180	28	0.973
43	496741	29	4.9718559624233
43	549812	30	5.3398822337267
43	606513	31	2.2672208453871
42	21162	10	1.9347899811622
42	28063	11	0.74858039512799
42	36314	12	-2.5157005488881
42	46035	13	1.2427793204646
42	57346	14	2.2567332456703
42	70367	15	0.6508334586783
42	85218	16	-0.046339351243896
42	102019	17	-2.8026705870187
42	120890	18	-1.7554770304284
42	141951	19	2.457379590075
42	165322	20	2.1325183514669
42	191123	21	0.12238267424194
42	219474	22	-0.59546509744682
42	247825	23	-2.7072372159545
42	281636	24	-0.7977799096567
42	318357	25	2.4271859096689
42	358108	26	-0.22267418138248
42	401009	27	-2.4468974830252
42	447180	28	-0.58464774220177
42	496741	29	2.5037423042604
42	549812	30	1.9987485778891
42	606513	31	0.35564637390896
39	15491	9	3.8952360408627
39	21162	10	5.8300260220249
39	28063	11	6.5786064171529
39	36314	12	4.0629058682647
39	46035	13	5.3056851887294
39	57346	14	7.5624184343997
39	70367	15	8.213251893078
39	85218	16	8.1669125418341
39	102019	17	5.3642419548154
39	120890	18	3.6087649243869
39	141951	19	6.0661445144619
39	165322	20	8.1986628659288
39	191123	21	8.3210455401707
39	219474	22	7.7255804427239
39	247825	23	5.0183432267694
39	281636	24	4.2205633171127
39	318357	25	6.6477492267816
39	358108	26	6.4250750453991
39	401009	27	3.9781775623739
39	447180	28	3.3935298201721
39	496741	29	5.8972721244325
39	549812	30	7.8960207023216
39	606513	31	8.2516670762305
31	10930	8	395.34439347992
31	15491	9	395.34439347992
31	21162	10	395.75541861834
31	28063	11	396.41073147403
31	36314	12	397.28465188976
31	46035	13	397.96832915849
31	57346	14	398.53403065481
31	70367	15	395.36304845404
31	85218	16	394.28441220617
31	102019	17	393.19216518783
31	120890	18	392.31968912062
31	141951	19	391.77148143208
31	165322	20	391.1195989172
31	191123	21	390.28622916363
31	219474	22	389.38174833209
31	247825	23	388.4858841449
31	281636	24	387.80653156947
31	318357	25	387.36125894929
31	358108	26	386.74099200498
31	401009	27	385.91942972001
31	447180	28	385.32739725355
31	496741	29	384.92997920119
31	549812	30	386.5733342323
31	606513	31	388.57422527156
30	10930	8	234.54720969858
30	15491	9	234.54720969858
30	21162	10	237.62447704186
30	28063	11	242.53068024441
30	36314	12	249.07355683415
30	46035	13	254.1921190235
30	57346	14	258.42741895521
30	70367	15	259.60858590399
30	85218	16	251.53045400448
30	102019	17	243.35038820526
30	120890	18	236.81623291052
30	141951	19	232.71059115679
30	165322	20	227.73188146809
30	191123	21	220.59398984193
30	219474	22	212.37166272221
30	247825	23	204.227666581
30	281636	24	198.05190374551
30	318357	25	194.0040820418
30	358108	26	188.44442975801
30	401009	27	181.43498828447
30	447180	28	176.47076202836
30	496741	29	173.13838881917
30	549812	30	169.52938730383
30	606513	31	175.80261305287
vector 150 Scenario.node[31].veinsmobility posx ETV
vector 151 Scenario.node[31].veinsmobility posy ETV
vector 152 Scenario.node[29].veinsmobility acceleration ETV
vector 153 Scenario.node[29].veinsmobility co2emission ETV
vector 154 Scenario.node[30].veinsmobility speed ETV
vector 155 Scenario.node[30].veinsmobility acceleration ETV
vector 156 Scenario.node[30].veinsmobility co2emission ETV
vector 157 Scenario.node[31].veinsmobility speed ETV
vector 158 Scenario.node[32].veinsmobility posx ETV
vector 159 Scenario.node[32].veinsmobility posy ETV
vector 160 Scenario.node[31].veinsmobility acceleration ETV
vector 161 Scenario.node[31].veinsmobility co2emission ETV
vector 162 Scenario.node[33].veinsmobility posx ETV
vector 163 Scenario.node[33].veinsmobility posy ETV
vector 164 Scenario.node[32].veinsmobility speed ETV
vector 165 Scenario.node[34].veinsmobility posx ETV
vector 166 Scenario.node[34].veinsmobility posy ETV
vector 167 Scenario.node[35].veinsmobility posx ETV
vector 168 Scenario.node[35].veinsmobility posy ETV
vector 169 Scenario.node[32].veinsmobility acceleration ETV
vector 170 Scenario.node[32].veinsmobility co2emission ETV
vector 171 Scenario.node[33].veinsmobility speed ETV
vector 172 Scenario.node[36].veinsmobility posx ETV
vector 173 Scenario.node[36].veinsmobility posy ETV
vector 174 Scenario.node[33].veinsmobility acceleration ETV
vector 175 Scenario.node[33].veinsmobility co2emission ETV
vector 176 Scenario.node[34].veinsmobility speed ETV
vector 177 Scenario.node[35].veinsmobility speed ETV
vector 178 Scenario.node[34].veinsmobility acceleration ETV
vector 179 Scenario.node[34].veinsmobility co2emission ETV
vector 180 Scenario.node[35].veinsmobility acceleration ETV
vector 181 Scenario.node[35].veinsmobility co2emission ETV
vector 182 Scenario.node[36].veinsmobility speed ETV
vector 183 Scenario.node[37].veinsmobility posx ETV
vector 184 Scenario.node[37].veinsmobility posy ETV
vector 185 Scenario.node[38].veinsmobility posx ETV
vector 186 Scenario.node[38].veinsmobility posy ETV
vector 187 Scenario.node[36].veinsmobility acceleration ETV
vector 188 Scenario.node[36].veinsmobility co2emission ETV
161	788254	34	3.9553573625297
161	852775	35	0.973
161	921292	36	4.1614804778495
161	997839	37	5.462372248672
161	1078413	38	2.5046021936157
161	1159096	39	1.6760292572899
160	788254	34	1.8225521847908
160	852775	35	-2.198783550999
160	921292	36	2.034410260273
160	997839	37	2.1088081492577
160	1078413	38	0.47772181795981
160	1159096	39	0.057236718870698
157	727609	33	3.977402908807
157	788254	34	5.7999550935978
157	852775	35	3.6011715425988
157	921292	36	5.6355818028718
157	997839	37	7.7443899521294
157	1078413	38	8.2221117700893
157	1159096	39	8.2793484889599
151	667158	32	400.15236507571
151	727609	33	400.15236507571
151	788254	34	400.54653519597
151	852775	35	401.19414493872
151	921292	36	401.79482296336
151	997839	37	400.85254917232
151	1078413	38	398.27565668523
151	1159096	39	397.21549056403
150	667158	32	270.72796217553
150	727609	33	270.72796217553
150	788254	34	273.76643050171
150	852775	35	278.75854327199
150	921292	36	283.32809961077
150	997839	37	287.33878214526
150	1078413	38	281.8997046514
150	1159096	39	273.76387624809
vector 189 Scenario.node[39].veinsmobility posx ETV
vector 190 Scenario.node[39].veinsmobility posy ETV
vector 191 Scenario.node[37].veinsmobility speed ETV
vector 192 Scenario.node[38].veinsmobility speed ETV
vector 193 Scenario.node[37].veinsmobility acceleration ETV
vector 194 Scenario.node[37].veinsmobility co2emission ETV
vector 195 Scenario.node[38].veinsmobility acceleration ETV
vector 196 Scenario.node[38].veinsmobility co2emission ETV
vector 197 Scenario.node[39].veinsmobility speed ETV
vector 198 Scenario.node[40].veinsmobility posx ETV
vector 199 Scenario.node[40].veinsmobility posy ETV
vector 200 Scenario.node[39].veinsmobility acceleration ETV
vector 201 Scenario.node[39].veinsmobility co2emission ETV
vector 202 Scenario.node[41].veinsmobility posx ETV
vector 203 Scenario.node[41].veinsmobility posy ETV
vector 204 Scenario.node[40].veinsmobility speed ETV
vector 205 Scenario.node[42].veinsmobility posx ETV
vector 206 Scenario.node[42].veinsmobility posy ETV
vector 207 Scenario.node[43].veinsmobility posx ETV
vector 208 Scenario.node[43].veinsmobility posy ETV
vector 209 Scenario.node[40].veinsmobility acceleration ETV
vector 210 Scenario.node[40].veinsmobility co2emission ETV
vector 211 Scenario.node[41].veinsmobility speed ETV
vector 212 Scenario.node[44].veinsmobility posx ETV
vector 213 Scenario.node[44].veinsmobility posy ETV
vector 214 Scenario.node[41].veinsmobility acceleration ETV
vector 215 Scenario.node[41].veinsmobility co2emission ETV
vector 216 Scenario.node[42].veinsmobility speed ETV
vector 217 Scenario.node[43].veinsmobility speed ETV
vector 218 Scenario.node[45].veinsmobility posx ETV
vector 219 Scenario.node[45].veinsmobility posy ETV
vector 220 Scenario.node[42].veinsmobility acceleration ETV
vector 221 Scenario.node[42].veinsmobility co2emission ETV
vector 222 Scenario.node[43].veinsmobility acceleration ETV
vector 223 Scenario.node[43].veinsmobility co2emission ETV
vector 224 Scenario.node[44].veinsmobility speed ETV
vector 225 Scenario.node[46].veinsmobility posx ETV
vector 226 Scenario.node[46].veinsmobility posy ETV
vector 227 Scenario.node[44].veinsmobility acceleration ETV
vector 228 Scenario.node[44].veinsmobility co2emission ETV
vector 229 Scenario.node[45].veinsmobility speed ETV
vector 230 Scenario.node[47].veinsmobility posx ETV
vector 231 Scenario.node[47].veinsmobility posy ETV
vector 232 Scenario.node[45].veinsmobility acceleration ETV
vector 233 Scenario.node[45].veinsmobility co2emission ETV
vector 234 Scenario.node[46].veinsmobility speed ETV
vector 235 Scenario.node[48].veinsmobility posx ETV
vector 236 Scenario.node[48].veinsmobility posy ETV
vector 237 Scenario.node[46].veinsmobility acceleration ETV
vector 238 Scenario.node[46].veinsmobility co2emission ETV
vector 239 Scenario.node[47].veinsmobility speed ETV
vector 240 Scenario.node[49].veinsmobility posx ETV
vector 241 Scenario.node[49].veinsmobility posy ETV
vector 242 Scenario.node[47].veinsmobility acceleration ETV
vector 243 Scenario.node[47].veinsmobility co2emission ETV
vector 244 Scenario.node[48].veinsmobility speed ETV
vector 245 Scenario.node[50].veinsmobility posx ETV
vector 246 Scenario.node[50].veinsmobility posy ETV
vector 247 Scenario.node[48].veinsmobility acceleration ETV
vector 248 Scenario.node[48].veinsmobility co2emission ETV
vector 249 Scenario.node[49].veinsmobility speed ETV
vector 250 Scenario.node[51].veinsmobility posx ETV
vector 251 Scenario.node[51].veinsmobility posy ETV
vector 252 Scenario.node[49].veinsmobility acceleration ETV
vector 253 Scenario.node[49].veinsmobility co2emission ETV
vector 254 Scenario.node[50].veinsmobility speed ETV
vector 255 Scenario.node[52].veinsmobility posx ETV
vector 256 Scenario.node[52].veinsmobility posy ETV
vector 257 Scenario.node[50].veinsmobility acceleration ETV
vector 258 Scenario.node[50].veinsmobility co2emission ETV
vector 259 Scenario.node[51].veinsmobility speed ETV
vector 260 Scenario.node[53].veinsmobility posx ETV
vector 261 Scenario.node[53].veinsmobility posy ETV
vector 262 Scenario.node[51].veinsmobility acceleration ETV
vector 263 Scenario.node[51].veinsmobility co2emission ETV
vector 264 Scenario.node[52].veinsmobility speed ETV
vector 265 Scenario.node[54].veinsmobility posx ETV
vector 266 Scenario.node[54].veinsmobility posy ETV
vector 267 Scenario.node[52].veinsmobility acceleration ETV
vector 268 Scenario.node[52].veinsmobility co2emission ETV
vector 269 Scenario.node[53].veinsmobility speed ETV
vector 270 Scenario.node[55].veinsmobility posx ETV
vector 271 Scenario.node[55].veinsmobility posy ETV
vector 272 Scenario.node[53].veinsmobility acceleration ETV
vector 273 Scenario.node[53].veinsmobility co2emission ETV
vector 274 Scenario.node[54].veinsmobility speed ETV
vector 275 Scenario.node[56].veinsmobility posx ETV
vector 276 Scenario.node[56].veinsmobility posy ETV
vector 277 Scenario.node[54].veinsmobility acceleration ETV
vector 278 Scenario.node[54].veinsmobility co2emission ETV
vector 279 Scenario.node[55].veinsmobility speed ETV
vector 280 Scenario.node[57].veinsmobility posx ETV
vector 281 Scenario.node[57].veinsmobility posy ETV
vector 282 Scenario.node[55].veinsmobility acceleration ETV
vector 283 Scenario.node[55].veinsmobility co2emission ETV
vector 284 Scenario.node[56].veinsmobility speed ETV
vector 285 Scenario.node[56].veinsmobility acceleration ETV
vector 286 Scenario.node[56].veinsmobility co2emission ETV
vector 287 Scenario.node[57].veinsmobility speed ETV
73	85218	16	4.0347017024421
73	102019	17	5.4861750612279
73	120890	18	2.2849111344092
73	141951	19	1.6300503785097
73	165322	20	1.4500932770556
73	191123	21	1.4487486152259
73	219474	22	1.7750657604201
73	247825	23	1.476567843627
73	281636	24	1.5868293876048
73	318357	25	1.4502855928939
73	358108	26	1.5435277578442
73	401009	27	0.973
73	447180	28	0.973
73	496741	29	0.973
73	549812	30	5.149112396342
73	606513	31	4.7587397786641
73	667158	32	1.5722811028345
73	727609	33	1.6478882940966
73	788254	34	1.6071712710575
73	852775	35	1.4862925585832
73	921292	36	1.6981103035917
73	997839	37	1.498083594744
73	1078413	38	1.5207861092514
73	1159096	39	0.973
73	1249057	40	0.973
73	1338568	41	2.3113300034474
73	1428087	42	4.8873767177393
73	1522533	43	0.973
73	1622029	44	0.973
73	1731094	45	2.9280458857722
73	1845455	46	5.1812170031925
73	1965510	47	3.3636118141159
73	2091339	48	1.6381579414136
73	2221627	49	0.973
73	2358510	50	0.973
73	2501071	51	0.973
73	2648757	52	0.973
73	2803319	53	1.1988748328811
73	2963558	54	2.6406156308379
73	3129909	55	3.8128766118769
73	3303295	56	4.829509123358
73	3482529	57	0.973
73	3669367	58	2.49924846822
73	3861660	59	3.7401362234137
72	85218	16	1.8557882841141
72	102019	17	2.0654164947057
72	120890	18	0.36141832409955
72	141951	19	0.032495368332601
72	165322	20	-0.055709306397475
72	191123	21	-0.054901006582659
72	219474	22	0.10503715967759
72	247825	23	-0.042638130465056
72	281636	24	0.012213024233933
72	318357	25	-0.05466673108749
72	358108	26	-0.0074332911567776
72	401009	27	-0.41692131046624
72	447180	28	-2.6757802142332
72	496741	29	-0.84472563004662
72	549812	30	2.3193075193651
72	606513	31	1.6150371747061
72	667158	32	0.0069364672969101
72	727609	33	0.043359556777869
72	788254	34	0.022133156629279
72	852775	35	-0.037243552121799
72	921292	36	0.06640343033243
72	997839	37	-0.032336421948859
72	1078413	38	-0.020341968454886
72	1159096	39	-1.4957611113283
72	1249057	40	-2.6114001090472
72	1338568	41	0.79533201135589
72	1428087	42	2.0249582444481
72	1522533	43	-0.30621893190313
72	1622029	44	-2.5794275267615
72	1731094	45	1.2098396778368
72	1845455	46	2.0685944562568
72	1965510	47	0.90279050891225
72	2091339	48	0.036794071868062
72	2221627	49	-2.338216850892
72	2358510	50	-2.300989233312
72	2501071	51	-0.7061389203949
72	2648757	52	-2.9723060679507
72	2803319	53	0.51533506954089
72	2963558	54	2.1658474958614
72	3129909	55	2.1246546181035
72	3303295	56	2.0372481535072
72	3482529	57	-0.24510961439627
72	3669367	58	0.58283550499437
72	3861660	59	1.0926797247214
69	70367	15	4.0093013836018
69	85218	16	5.8650896677159
69	102019	17	7.9305061624216
69	120890	18	8.2919244865212
69	141951	19	8.3244198548538
69	165322	20	8.2687105484563
69	191123	21	8.2138095418736
69	219474	22	8.3188467015512
69	247825	23	8.2762085710862
69	281636	24	8.2884215953201
69	318357	25	8.2337548642326
69	358108	26	8.2263215730758
69	401009	27	7.8094002626096
69	447180	28	5.1336200483764
69	496741	29	4.2888944183297
69	549812	30	6.6082019376948
69	606513	31	8.2232391124009
69	667158	32	8.2301755796978
69	727609	33	8.2735351364757
69	788254	34	8.295668293105
69	852775	35	8.2584247409832
69	921292	36	8.3248281713156
69	997839	37	8.2924917493667
69	1078413	38	8.2721497809119
69	1159096	39	6.7763886695835
69	1249057	40	4.1649885605363
69	1338568	41	4.9603205718922
69	1428087	42	6.9852788163403
69	1522533	43	6.6790598844371
69	1622029	44	4.0996323576756
69	1731094	45	5.3094720355125
69	1845455	46	7.3780664917693
69	1965510	47	8.2808570006816
69	2091339	48	8.3176510725496
69	2221627	49	5.9794342216576
69	2358510	50	3.6784449883456
69	2501071	51	2.9723060679507
69	2648757	52	0
69	2803319	53	0.51533506954089
69	2963558	54	2.6811825654022
69	3129909	55	4.8058371835058
69	3303295	56	6.843085337013
69	3482529	57	6.5979757226167
69	3669367	58	7.1808112276111
69	3861660	59	8.2734909523325
61	57346	14	300.1492453685
61	70367	15	300.1492453685
61	85218	16	300.04189547847
61	102019	17	299.86814215221
61	120890	18	299.62873581885
61	141951	19	299.34577704515
61	165322	20	299.06171063706
61	191123	21	298.77831763988
61	219474	22	298.49508671272
61	247825	23	298.21154355227
61	281636	24	297.92889374629
61	318357	25	297.64561188862
61	358108	26	297.36266007339
61	401009	27	297.07978446651
61	447180	28	296.79883558911
61	496741	29	296.58387318233
61	549812	30	296.44269293583
61	606513	31	297.35738103065
61	667158	32	304.70531132811
61	727609	33	312.93057040146
61	788254	34	321.14840101402
61	852775	35	329.39441403116
61	921292	36	337.61927908973
61	997839	37	345.86166722839
61	1078413	38	354.07565406084
61	1159096	39	362.32211129313
61	1249057	40	370.1211163737
61	1338568	41	375.40039428051
61	1428087	42	379.44623882373
61	1522533	43	385.58936662175
61	1622029	44	388.44338461601
61	1731094	45	389.05955454236
61	1845455	46	389.56537778802
61	1965510	47	390.30134831629
61	2091339	48	391.18783194817
61	2221627	49	392.09172257712
61	2358510	50	392.88601734948
61	2501071	51	393.39663799745
61	2648757	52	393.82673397364
61	2803319	53	393.91843218435
61	2963558	54	393.89073187612
61	3129909	55	392.96614212798
61	3303295	56	390.54944280145
61	3482529	57	389.89883763463
61	3669367	58	389.13843963181
61	3861660	59	388.38719631156
60	57346	14	290.41621486141
60	70367	15	290.41621486141
60	85218	16	287.28681905959
60	102019	17	282.22167246702
60	120890	18	275.24265111632
60	141951	19	266.99401669079
60	165322	20	258.71309321122
60	191123	21	250.45180057892
60	219474	22	242.19523250884
60	247825	23	233.92956241221
60	281636	24	225.68993481752
60	318357	25	217.43188205337
60	358108	26	209.18345047686
60	401009	27	200.93724047774
60	447180	28	192.7471972727
60	496741	29	186.48074974202
60	549812	30	182.36515287872
60	606513	31	177.06641400653
60	667158	32	175.26439171329
60	727609	33	174.52814474728
60	788254	34	173.79256270644
60	852775	35	173.05445804476
60	921292	36	172.31824634721
60	997839	37	171.58046615019
60	1078413	38	170.84522816798
60	1159096	39	170.10708374439
60	1249057	40	169.40899098193
60	1338568	41	168.93644023223
60	1428087	42	168.57429470669
60	1522533	43	168.63715756759
60	1622029	44	174.70550663651
60	1731094	45	179.87212688103
60	1845455	46	184.1134838662
60	1965510	47	190.55407027085
60	2091339	48	198.61279097934
60	2221627	49	206.82975276834
60	2358510	50	214.05041595993
60	2501071	51	218.69229432302
60	2648757	52	222.60215032628
60	2803319	53	223.43574752198
60	2963558	54	223.50599119351
60	3129909	55	224.94133628053
60	3303295	56	222.98677535713
60	3482529	57	217.07234542027
60	3669367	58	210.1598262133
60	3861660	59	203.33052910699
vector 288 Scenario.node[58].veinsmobility posx ETV
vector 289 Scenario.node[58].veinsmobility posy ETV
vector 290 Scenario.node[59].veinsmobility posx ETV
vector 291 Scenario.node[59].veinsmobility posy ETV
vector 292 Scenario.node[57].veinsmobility acceleration ETV
vector 293 Scenario.node[57].veinsmobility co2emission ETV
210	1622029	44	4.058643684293
210	1731094	45	2.5659303428304
210	1845455	46	0.973
210	1965510	47	2.6772554824389
210	2091339	48	5.282698578235
210	2221627	49	3.4364853274015
210	2358510	50	1.6611078890366
210	2501071	51	1.6295092926637
210	2648757	52	1.464853612142
210	2803319	53	1.5682073428485
210	2963558	54	0.973
210	3129909	55	0.973
210	3303295	56	0.973
210	3482529	57	5.2256102494203
210	3669367	58	4.6557922927364
210	3861660	59	1.6137927365215
210	4054707	60	1.4101738601988
209	1622029	44	1.8822549325437
209	1731094	45	0.70641553812067
209	1845455	46	-2.4808766872224
209	1965510	47	1.0590803643641
209	2091339	48	2.1575303829834
209	2221627	49	0.94712545987017
209	2358510	50	0.04981827261625
209	2501071	51	0.032744800611399
209	2648757	52	-0.048128040758893
209	2803319	53	0.003651052678471
209	2963558	54	-0.94603745735541
209	3129909	55	-2.6880713023675
209	3303295	56	-0.21259961508615
209	3482529	57	2.3173651012965
209	3669367	58	1.5491578705689
209	3861660	59	0.024889395725914
209	4054707	60	-0.074933446978685
204	1522533	43	3.9564962856085
204	1622029	44	5.8387512181522
204	1731094	45	6.5451667562729
204	1845455	46	4.0642900690504
204	1965510	47	5.1233704334145
204	2091339	48	7.2809008163979
204	2221627	49	8.2280262762681
204	2358510	50	8.2778445488843
204	2501071	51	8.3105893494957
204	2648757	52	8.2624613087368
204	2803319	53	8.2661123614153
204	2963558	54	7.3200749040599
204	3129909	55	4.6320036016924
204	3303295	56	4.4194039866062
204	3482529	57	6.7367690879027
204	3669367	58	8.2859269584715
204	3861660	59	8.3108163541975
204	4054707	60	8.2358829072188
199	1428087	42	122.68642663291
199	1522533	43	122.68642663291
199	1622029	44	123.03142572469
199	1731094	45	127.89341946099
199	1845455	46	134.61564378406
199	1965510	47	139.70931206749
199	2091339	48	143.80259153768
199	2221627	49	147.93203222929
199	2358510	50	148.23984039575
199	2501071	51	148.3669659438
199	2648757	52	148.49453418547
199	2803319	53	148.62158168022
199	2963558	54	148.74023615786
199	3129909	55	148.85041212453
199	3303295	56	148.92966699449
199	3482529	57	148.98344048946
199	3669367	58	148.78805933016
199	3861660	59	143.02203291657
199	4054707	60	134.76162041512
198	1428087	42	177.50024257857
198	1522533	43	177.50024257857
198	1622029	44	175.1454761304
198	1731094	45	174.82416740915
198	1845455	46	174.88609360212
198	1965510	47	174.93433577756
198	2091339	48	174.97849599234
198	2221627	49	178.71509361388
198	2358510	50	186.7228193393
198	2501071	51	194.9910649848
198	2648757	52	203.28810342276
198	2803319	53	211.55127248132
198	2963558	54	219.80900437868
198	3129909	55	227.87084580152
198	3303295	56	233.67011594166
198	3482529	57	237.60485236674
198	3669367	58	243.32821561852
198	3861660	59	246.87267087733
198	4054707	60	247.18731532652
vector 294 Scenario.node[60].veinsmobility posx ETV
vector 295 Scenario.node[60].veinsmobility posy ETV
vector 296 Scenario.node[58].veinsmobility speed ETV
vector 297 Scenario.node[59].veinsmobility speed ETV
vector 298 Scenario.node[61].veinsmobility posx ETV
vector 299 Scenario.node[61].veinsmobility posy ETV
vector 300 Scenario.node[58].veinsmobility acceleration ETV
vector 301 Scenario.node[58].veinsmobility co2emission ETV
vector 302 Scenario.node[59].veinsmobility acceleration ETV
vector 303 Scenario.node[59].veinsmobility co2emission ETV
vector 304 Scenario.node[60].veinsmobility speed ETV
148	606513	31	2.4890319614386
148	667158	32	0.973
148	727609	33	5.2293210798478
148	788254	34	4.9729530036099
148	852775	35	0.973
148	921292	36	0.973
148	997839	37	0.973
148	1078413	38	0.973
148	1159096	39	0.973
148	1249057	40	0.973
148	1338568	41	0.973
148	1428087	42	0.973
148	1522533	43	0.973
148	1622029	44	0.973
148	1731094	45	0.973
148	1845455	46	0.973
148	1965510	47	0.973
148	2091339	48	0.973
148	2221627	49	1.1821877678215
148	2358510	50	2.1922044138877
148	2501071	51	3.4361393299132
148	2648757	52	3.667415594337
148	2803319	53	5.5696400524165
148	2963558	54	2.1025940502532
148	3129909	55	0.973
148	3303295	56	0.973
148	3482529	57	0.973
148	3669367	58	5.0582725518201
148	3861660	59	4.6725612740865
148	4054707	60	1.5118759818017
148	4254497	61	1.741094985641
148	4454445	62	1.418337544898
147	606513	31	0.96308859895067
147	667158	32	-0.74099920562618
147	727609	33	2.3979280381044
147	788254	34	1.7157953539466
147	852775	35	-1.4460972516614
147	921292	36	-2.5106805417126
147	997839	37	-2.01202062397
147	1078413	38	-1.2138595027894
147	1159096	39	-0.63448489613348
147	1249057	40	-0.42126649703426
147	1338568	41	-0.01506685534256
147	1428087	42	0
147	1522533	43	0
147	1622029	44	0
147	1731094	45	0
147	1845455	46	0
147	1965510	47	0
147	2091339	48	0
147	2221627	49	0.45625728934122
147	2358510	50	1.7936989445326
147	2501071	51	2.0417630347408
147	2648757	52	1.5905749216978
147	2803319	53	2.0950894506229
147	2963558	54	0.27295221220401
147	3129909	55	-0.90586609315054
147	3303295	56	-2.6671320212065
147	3482529	57	-0.20665724750928
147	3669367	58	2.2282338883844
147	3861660	59	1.5629123529016
147	4054707	60	-0.023761605781036
147	4254497	61	0.087783396034501
147	4454445	62	-0.071289957815315
144	549812	30	3.9176633832682
144	606513	31	4.8807519822189
144	667158	32	4.1397527765927
144	727609	33	6.5376808146971
144	788254	34	8.2534761686437
144	852775	35	6.8073789169823
144	921292	36	4.2966983752697
144	997839	37	2.2846777512997
144	1078413	38	1.0708182485103
144	1159096	39	0.43633335237682
144	1249057	40	0.01506685534256
144	1338568	41	0
144	1428087	42	0
144	1522533	43	0
144	1622029	44	0
144	1731094	45	0
144	1845455	46	0
144	1965510	47	0
144	2091339	48	0
144	2221627	49	0.45625728934122
144	2358510	50	2.2499562338738
144	2501071	51	4.2917192686146
144	2648757	52	5.8822941903125
144	2803319	53	7.9773836409354
144	2963558	54	8.2503358531394
144	3129909	55	7.3444697599889
144	3303295	56	4.6773377387824
144	3482529	57	4.4706804912731
144	3669367	58	6.6989143796575
144	3861660	59	8.2618267325591
144	4054707	60	8.2380651267781
144	4254497	61	8.3258485228126
144	4454445	62	8.2545585649973
136	496741	29	398.01825892314
136	549812	30	398.01825892314
136	606513	31	397.62279588334
136	667158	32	396.99403918236
136	727609	33	396.48461653165
136	788254	34	395.7697990228
136	852775	35	394.76767054109
136	921292	36	393.73385142161
136	997839	37	393.02258291374
136	1078413	38	392.61376654332
136	1159096	39	392.40663858896
136	1249057	40	392.31843310326
136	1338568	41	392.26637038371
136	1428087	42	392.26636008653
136	1522533	43	392.26636008653
136	1622029	44	392.26636008653
136	1731094	45	392.26636008653
136	1845455	46	392.26636008653
136	1965510	47	392.26636008653
136	2091339	48	392.26636008653
136	2221627	49	392.26636008653
136	2358510	50	392.23353910119
136	2501071	51	392.04493911882
136	2648757	52	391.61339473367
136	2803319	53	390.97584525802
136	2963558	54	390.16773623652
136	3129909	55	389.2652977826
136	3303295	56	388.38159751068
136	3482529	57	387.74078590552
136	3669367	58	387.3023723516
136	3861660	59	389.04114365886
136	4054707	60	390.92795614117
136	4254497	61	391.83321576089
136	4454445	62	392.74037700405
135	496741	29	279.92440664678
135	549812	30	279.92440664678
135	606513	31	276.88958090827
135	667158	32	272.06443461821
135	727609	33	268.15507061568
135	788254	34	262.69247257326
135	852775	35	255.14967649838
135	921292	36	247.40718942373
135	997839	37	242.0803511741
135	1078413	38	239.01864008342
135	1159096	39	237.46741561951
135	1249057	40	236.80682633451
135	1338568	41	236.41691776578
135	1428087	42	236.41684064803
135	1522533	43	236.41684064803
135	1622029	44	236.41684064803
135	1731094	45	236.41684064803
135	1845455	46	236.41684064803
135	1965510	47	236.41684064803
135	2091339	48	236.41684064803
135	2221627	49	236.41684064803
135	2358510	50	236.1710374413
135	2501071	51	234.75857282509
135	2648757	52	231.52664689029
135	2803319	53	226.55634751315
135	2963558	54	219.5168110073
135	3129909	55	211.31305044674
135	3303295	56	203.27963231551
135	3482529	57	197.45423231148
135	3669367	58	193.46876404239
135	3861660	59	189.11375398947
135	4054707	60	196.25034854703
135	4254497	61	204.47975536481
135	4454445	62	212.72644919342
vector 305 Scenario.node[60].veinsmobility acceleration ETV
vector 306 Scenario.node[60].veinsmobility co2emission ETV
vector 307 Scenario.node[61].veinsmobility speed ETV
101	219474	22	4.3163673268838
101	247825	23	5.2638556666171
101	281636	24	6.2922999597281
101	318357	25	0.973
101	358108	26	0.973
101	401009	27	0.973
101	447180	28	5.1265748257432
101	496741	29	5.3314094296244
101	549812	30	6.0755900972503
101	606513	31	6.6267006948558
101	667158	32	0.973
101	727609	33	0.973
101	788254	34	1.2750368681776
101	852775	35	3.0268846684324
101	921292	36	4.7065351809396
101	997839	37	0.973
101	1078413	38	0.973
101	1159096	39	0.973
101	1249057	40	0.973
101	1338568	41	3.6878274800731
101	1428087	42	4.8329125576006
101	1522533	43	6.2347548140078
101	1622029	44	6.3832789496837
101	1731094	45	0.973
101	1845455	46	0.973
101	1965510	47	0.973
101	2091339	48	0.973
101	2221627	49	0.973
101	2358510	50	0.973
101	2501071	51	0.973
101	2648757	52	0.973
101	2803319	53	0.973
101	2963558	54	0.973
101	3129909	55	0.973
101	3303295	56	0.973
101	3482529	57	0.973
101	3669367	58	0.973
101	3861660	59	0.973
101	4054707	60	1.1379375029786
101	4254497	61	1.1507128879149
101	4454445	62	1.6881717656836
101	4661380	63	3.0819522168688
100	219474	22	1.9310229560384
100	247825	23	1.9020587902167
100	281636	24	1.9093310641753
100	318357	25	-2.0570843403492
100	358108	26	-2.7628768947175
100	401009	27	-1.3104015760243
100	447180	28	2.4267999347323
100	496741	29	1.9064249666873
100	549812	30	1.8155841601244
100	606513	31	1.6988314539881
100	667158	32	-1.7564880066759
100	727609	33	-1.3549070285132
100	788254	34	-0.14682029655332
100	852775	35	0.64098166839311
100	921292	36	1.2055422623158
100	997839	37	-0.3761180852862
100	1078413	38	-2.246290633852
100	1159096	39	-1.7846565802069
100	1249057	40	-0.28647243685524
100	1338568	41	1.3215375333859
100	1428087	42	1.5833360543078
100	1522533	43	1.8147740487103
100	1622029	44	1.5804547346292
100	1731094	45	-2.3611106209163
100	1845455	46	-2.0225235599481
100	1965510	47	-1.8923565810907
100	2091339	48	-1.5263891849924
100	2221627	49	-1.3933242724806
100	2358510	50	-1.0949077284268
100	2501071	51	-0.74610284959332
100	2648757	52	-0.4444187689551
100	2803319	53	-0.44227056416741
100	2963558	54	0
100	3129909	55	0
100	3303295	56	0
100	3482529	57	0
100	3669367	58	0
100	3861660	59	0
100	4054707	60	0.25478813442495
100	4254497	61	0.18440468436421
100	4454445	62	1.2332350743348
100	4661380	63	2.0141365646236
99	191123	21	4.2688403818997
99	219474	22	6.199863337938
99	247825	23	8.1019221281547
99	281636	24	10.01125319233
99	318357	25	7.9541688519809
99	358108	26	5.1912919572634
99	401009	27	3.8808903812391
99	447180	28	6.3076903159713
99	496741	29	8.2141152826587
99	549812	30	10.029699442783
99	606513	31	11.728530896771
99	667158	32	9.9720428900953
99	727609	33	8.6171358615821
99	788254	34	8.4703155650288
99	852775	35	9.1112972334219
99	921292	36	10.316839495738
99	997839	37	9.9407214104515
99	1078413	38	7.6944307765996
99	1159096	39	5.9097741963927
99	1249057	40	5.6233017595374
99	1338568	41	6.9448392929234
99	1428087	42	8.5281753472312
99	1522533	43	10.342949395941
99	1622029	44	11.923404130571
99	1731094	45	9.5622935096544
99	1845455	46	7.5397699497063
99	1965510	47	5.6474133686156
99	2091339	48	4.1210241836232
99	2221627	49	2.7276999111426
99	2358510	50	1.6327921827158
99	2501071	51	0.88668933312251
99	2648757	52	0.44227056416741
99	2803319	53	0
99	2963558	54	0
99	3129909	55	0
99	3303295	56	0
99	3482529	57	0
99	3669367	58	0
99	3861660	59	0
99	4054707	60	0.25478813442495
99	4254497	61	0.43919281878916
99	4454445	62	1.672427893124
99	4661380	63	3.6865644577475
91	165322	20	201.03326490502
91	191123	21	201.03326490502
91	219474	22	197.79305660421
91	247825	23	192.49688013704
91	281636	24	185.36973340783
91	318357	25	176.32350741249
91	358108	26	167.1603455627
91	401009	27	160.8520521856
91	447180	28	156.84865177886
91	496741	29	154.75634451817
91	549812	30	161.87362778086
91	606513	31	171.02374297727
91	667158	32	181.97211702287
91	727609	33	192.9371459845
91	788254	34	201.97434424223
91	852775	35	210.30765256034
91	921292	36	218.98813017951
91	997839	37	228.6225413529
91	1078413	38	239.08272602597
91	1159096	39	247.74702485844
91	1249057	40	254.44371256843
91	1338568	41	259.87266107592
91	1428087	42	266.12555960433
91	1522533	43	273.60235511586
91	1622029	44	266.26451781966
91	1731094	45	255.16503959413
91	1845455	46	244.66472693182
91	1965510	47	236.30647734687
91	2091339	48	229.89562320395
91	2221627	49	225.10251138953
91	2358510	50	221.77772744743
91	2501071	51	219.69306676269
91	2648757	52	218.48814854811
91	2803319	53	217.91985589634
91	2963558	54	217.61540437681
91	3129909	55	217.61540437681
91	3303295	56	217.61540437681
91	3482529	57	217.58956123436
91	3669367	58	217.58956123436
91	3861660	59	217.58956123436
91	4054707	60	217.58956123436
91	4254497	61	217.5642363583
91	4454445	62	217.40403315577
91	4661380	63	216.47873242226
90	165322	20	458.56210227811
90	191123	21	458.56210227811
90	219474	22	458.97177654294
90	247825	23	459.64139620909
90	281636	24	460.5425137687
90	318357	25	461.6862692437
90	358108	26	462.84480945035
90	401009	27	463.64239565831
90	447180	28	464.14856377042
90	496741	29	461.49950519408
90	549812	30	460.19029209305
90	606513	31	459.03362642255
90	667158	32	457.64964292788
90	727609	33	456.26355408597
90	788254	34	455.12116224087
90	852775	35	454.10115287098
90	921292	36	453.13112897728
90	997839	37	452.07611242303
90	1078413	38	450.93120918488
90	1159096	39	449.98381120348
90	1249057	40	449.25156171148
90	1338568	41	448.65793319559
90	1428087	42	447.97420984321
90	1522533	43	448.11847398074
90	1622029	44	451.27747461347
90	1731094	45	452.49148004439
90	1845455	46	453.63995174183
90	1965510	47	454.55413529019
90	2091339	48	455.25612536093
90	2221627	49	455.78099524863
90	2358510	50	456.14507583799
90	2501071	51	456.37335668389
90	2648757	52	456.50530129784
90	2803319	53	456.56753220583
90	2963558	54	456.60087118081
90	3129909	55	456.60087118081
90	3303295	56	456.60087118081
90	3482529	57	456.60370113509
90	3669367	58	456.60370113509
90	3861660	59	456.60370113509
90	4054707	60	456.60370113509
90	4254497	61	456.60647433659
90	4454445	62	456.62401739424
90	4661380	63	456.72534248552
vector 308 Scenario.node[62].veinsmobility posx ETV
vector 309 Scenario.node[62].veinsmobility posy ETV
vector 310 Scenario.node[61].veinsmobility acceleration ETV
vector 311 Scenario.node[61].veinsmobility co2emission ETV
vector 312 Scenario.node[63].veinsmobility posx ETV
vector 313 Scenario.node[63].veinsmobility posy ETV
vector 314 Scenario.node[62].veinsmobility speed ETV
118	318357	25	4.3253960250672
118	358108	26	5.138372614279
118	401009	27	6.5890967258163
118	447180	28	7.6118268808884
118	496741	29	8.9889666391864
118	549812	30	8.9860600832554
118	606513	31	9.4093266564902
118	667158	32	12.372733587741
118	727609	33	13.128469793023
118	788254	34	7.3935650843132
118	852775	35	3.1477663385654
118	921292	36	3.1074416052615
118	997839	37	3.3596593578044
118	1078413	38	2.8015696842109
118	1159096	39	0.973
118	1249057	40	0.973
118	1338568	41	0.973
118	1428087	42	0.973
118	1522533	43	0.973
118	1622029	44	0.973
118	1731094	45	0.973
118	1845455	46	0.973
118	1965510	47	0.973
118	2091339	48	0.973
118	2221627	49	0.973
118	2358510	50	0.973
118	2501071	51	0.973
118	2648757	52	2.6540095094287
118	2803319	53	3.3641584652242
118	2963558	54	4.218394004525
118	3129909	55	5.3078910099884
118	3303295	56	5.8653267763384
118	3482529	57	2.0614686553659
118	3669367	58	0.973
118	3861660	59	0.973
118	4054707	60	0.973
118	4254497	61	0.973
118	4454445	62	1.1508203599983
118	4661380	63	2.0803983877033
118	4860826	64	3.3310714681451
118	5060474	65	4.3000261881561
117	318357	25	2.0308548726002
117	358108	26	1.9056226343568
117	401009	27	2.0570862460556
117	447180	28	2.0094222991751
117	496741	29	2.063508251491
117	549812	30	1.7785288740741
117	606513	31	1.660535605473
117	667158	32	2.0543642149866
117	727609	33	1.9515349567682
117	788254	34	0.78471752025351
117	852775	35	-0.0082421430596149
117	921292	36	-0.015262304358185
117	997839	37	0.030801796948072
117	1078413	38	-0.071205038444607
117	1159096	39	-3.5995702429963
117	1249057	40	-3.5754687877458
117	1338568	41	-3.4271320031846
117	1428087	42	-3.1320829921431
117	1522533	43	-2.8443039469086
117	1622029	44	-2.3010550597619
117	1731094	45	-1.6054576654848
117	1845455	46	-0.97098029441082
117	1965510	47	-0.25730649636299
117	2091339	48	-0.43214567233168
117	2221627	49	0
117	2358510	50	0
117	2501071	51	0
117	2648757	52	2.4319481493839
117	2803319	53	1.9345820649038
117	2963558	54	1.8573203496844
117	3129909	55	1.9147057668958
117	3303295	56	1.7564125069743
117	3482529	57	0.15400249564922
117	3669367	58	-2.9775253540447
117	3861660	59	-2.6492607385624
117	4054707	60	-1.9292338069857
117	4254497	61	-1.2580026788161
117	4454445	62	-0.05691655153189
117	4661380	63	1.374690785264
117	4860826	64	1.8741617413343
117	5060474	65	1.8825007806392
112	281636	24	3.9132353750111
112	318357	25	5.9440902476112
112	358108	26	7.8497128819681
112	401009	27	9.9067991280236
112	447180	28	11.916221427199
112	496741	29	13.97972967869
112	549812	30	15.758258552764
112	606513	31	17.418794158237
112	667158	32	19.473158373223
112	727609	33	21.424693329992
112	788254	34	22.209410850245
112	852775	35	22.201168707185
112	921292	36	22.185906402827
112	997839	37	22.216708199775
112	1078413	38	22.145503161331
112	1159096	39	18.545932918334
112	1249057	40	14.970464130589
112	1338568	41	11.543332127404
112	1428087	42	8.4112491352608
112	1522533	43	5.5669451883522
112	1622029	44	3.2658901285903
112	1731094	45	1.6604324631055
112	1845455	46	0.68945216869467
112	1965510	47	0.43214567233168
112	2091339	48	0
112	2221627	49	0
112	2358510	50	0
112	2501071	51	0
112	2648757	52	2.4319481493839
112	2803319	53	4.3665302142877
112	2963558	54	6.2238505639721
112	3129909	55	8.1385563308679
112	3303295	56	9.8949688378422
112	3482529	57	10.048971333491
112	3669367	58	7.0714459794467
112	3861660	59	4.4221852408843
112	4054707	60	2.4929514338987
112	4254497	61	1.2349487550826
112	4454445	62	1.1780322035507
112	4661380	63	2.5527229888147
112	4860826	64	4.426884730149
112	5060474	65	6.3093855107882
106	247825	23	343.34824497013
106	281636	24	343.34824497013
106	318357	25	342.63735065732
106	358108	26	341.48946157456
106	401009	27	340.07630482224
106	447180	28	338.26101342286
106	496741	29	335.93119288387
106	549812	30	333.09113991993
106	606513	31	329.82324835431
106	667158	32	326.18389592527
106	727609	33	322.14476159389
106	788254	34	317.66869409343
106	852775	35	312.86182790208
106	921292	36	308.02967631443
106	997839	37	303.19755923062
106	1078413	38	298.36372336802
106	1159096	39	293.53517381392
106	1249057	40	289.1182087072
106	1338568	41	285.49859807474
106	1428087	42	282.65048740814
106	1522533	43	280.51774485277
106	1622029	44	279.03799642922
106	1731094	45	278.11361095674
106	1845455	46	277.61090845329
106	1965510	47	277.37646784353
106	2091339	48	277.27045804267
106	2221627	49	277.22831405121
106	2358510	50	277.22831405121
106	2501071	51	277.22831405121
106	2648757	52	277.22831405121
106	2803319	53	276.91374041735
106	2963558	54	275.81074637834
106	3129909	55	271.74076876305
106	3303295	56	264.46735281082
106	3482529	57	255.43349271885
106	3669367	58	244.94135014416
106	3861660	59	236.63440390893
106	4054707	60	231.1148399348
106	4254497	61	227.85393565929
106	4454445	62	226.1552815828
106	4661380	63	225.10200374355
106	4860826	64	223.25336388265
106	5060474	65	219.72427471133
105	247825	23	755.06648631372
105	281636	24	755.06648631372
105	318357	25	752.11616135417
105	358108	26	747.23762581511
105	401009	27	740.42583232534
105	447180	28	731.67942831013
105	496741	29	720.86410768292
105	549812	30	708.15195559913
105	606513	31	693.52478663329
105	667158	32	677.234949031
105	727609	33	659.155677074
105	788254	34	639.12068071104
105	852775	35	617.60502066996
105	921292	36	595.97618252711
105	997839	37	574.3474988244
105	1078413	38	552.72957837166
105	1159096	39	531.11915564904
105	1249057	40	511.34757939333
105	1338568	41	495.14518568941
105	1428087	42	482.39996702435
105	1522533	43	472.85640316653
105	1622029	44	466.23484749015
105	1731094	45	462.09842147678
105	1845455	46	459.84893598164
105	1965510	47	458.79986471682
105	2091339	48	458.3254936768
105	2221627	49	458.13690838659
105	2358510	50	458.13690838659
105	2501071	51	458.13690838659
105	2648757	52	458.13690838659
105	2803319	53	456.82421075821
105	2963558	54	453.47161158323
105	3129909	55	450.67850966654
105	3303295	56	451.47403953632
105	3482529	57	452.46211798388
105	3669367	58	453.60969607798
105	3861660	59	454.51826832246
105	4054707	60	455.12261498743
105	4254497	61	455.47970043153
105	4454445	62	455.66571160942
105	4661380	63	455.78105083842
105	4860826	64	455.98348621522
105	5060474	65	456.36993925631
18	2707	5	4.0931528521982
18	4658	6	5.2818369967646
18	7359	7	2.3576776206771
18	10930	8	1.7089460487925
18	15491	9	1.4672051718234
18	21162	10	1.5892007118027
18	28063	11	1.5658300201351
18	36314	12	1.4771523689236
18	46035	13	1.6119277327381
18	57346	14	1.5749166226808
18	70367	15	1.5893446702193
18	85218	16	0.973
18	102019	17	0.973
18	120890	18	0.973
18	141951	19	5.009418550652
18	165322	20	5.2617441349322
18	191123	21	1.964707650501
18	219474	22	1.5026518862056
18	247825	23	1.4364101658481
18	281636	24	1.6028881346267
18	318357	25	1.5314010716374
18	358108	26	1.560212791234
18	401009	27	1.5046019891079
18	447180	28	1.7698276013996
18	496741	29	0.973
18	549812	30	0.973
18	606513	31	3.5604138429278
18	667158	32	5.8230323863536
18	727609	33	2.5768527594045
18	788254	34	1.3832774364902
18	852775	35	1.7384295672301
18	921292	36	1.3732024897242
18	997839	37	1.6755761362239
18	1078413	38	1.6874170905311
18	1159096	39	1.4168520882727
18	1249057	40	1.5876595945117
18	1338568	41	1.555831288959
18	1428087	42	1.6423578585729
18	1522533	43	1.5529236864011
18	1622029	44	1.5520440192251
18	1731094	45	0.973
18	1845455	46	0.973
18	1965510	47	0.973
18	2091339	48	4.9773816424269
18	2221627	49	5.1770732427897
18	2358510	50	1.4269962179643
18	2501071	51	1.662824719756
18	2648757	52	1.3501533793288
18	2803319	53	1.699868030122
18	2963558	54	1.6709313245673
18	3129909	55	1.5315587933645
18	3303295	56	1.5894707534513
18	3482529	57	1.388125249157
18	3669367	58	1.584947521452
18	3861660	59	1.6007392293367
18	4054707	60	1.6700824112766
18	4254497	61	1.4419460756135
18	4454445	62	1.6737603498947
18	4661380	63	1.3494716475046
18	4860826	64	1.6574245728169
18	5060474	65	1.6146853089321
17	2707	5	1.8934586951672
17	4658	6	1.9799075634219
17	7359	7	0.40078402087973
17	10930	8	0.071687605266925
17	15491	9	-0.047442472623661
17	21162	10	0.013225392308087
17	28063	11	0.0014822860877022
17	36314	12	-0.041685313740745
17	46035	13	0.025148586432914
17	57346	14	0.0063774761464455
17	70367	15	0.013140040771104
17	85218	16	-0.43291931101941
17	102019	17	-2.7377294902059
17	120890	18	-1.2949596610363
17	141951	19	2.3867483974597
17	165322	20	1.8971636538836
17	191123	21	0.19979673056498
17	219474	22	-0.029857794865965
17	247825	23	-0.061419957827312
17	281636	24	0.021774831858929
17	318357	25	-0.01375434224261
17	358108	26	0.00074200339615338
17	401009	27	-0.026475643166341
17	447180	28	0.10284090219066
17	496741	29	-2.0281645457703
17	549812	30	-2.4229575031414
17	606513	31	1.6380337824877
17	667158	32	2.2885501502175
17	727609	33	0.50743700717172
17	788254	34	-0.087769572616088
17	852775	35	0.087912349691614
17	921292	36	-0.092755585573613
17	997839	37	0.057879597404972
17	1078413	38	0.061301886267028
17	1159096	39	-0.071857462774496
17	1249057	40	0.013596531634684
17	1338568	41	-0.0023129993746984
17	1428087	42	0.03963129504351
17	1522533	43	-0.0049253175384365
17	1622029	44	-0.0051938299974434
17	1731094	45	-0.54950583516646
17	1845455	46	-2.6366636183258
17	1965510	47	-0.82397799973576
17	2091339	48	2.2439910374396
17	2221627	49	1.8009075200725
17	2358510	50	-0.066973659319338
17	2501071	51	0.049578360677696
17	2648757	52	-0.1044406683417
17	2803319	53	0.06954975832952
17	2963558	54	0.052906948912424
17	3129909	55	-0.016062861017417
17	3303295	56	0.012425764997024
17	3482529	57	-0.085996408874635
17	3669367	58	0.012739270904566
17	3861660	59	0.019962371012662
17	4054707	60	0.052654594955966
17	4254497	61	-0.059559676351491
17	4454445	62	0.05468496370362
17	4661380	63	-0.10496121682227
17	4860826	64	0.048749147532508
17	5060474	65	0.026302686368581
14	1386	4	3.9817542820289
14	2707	5	5.8752129771961
14	4658	6	7.855120540618
14	7359	7	8.2559045614977
14	10930	8	8.3275921667647
14	15491	9	8.280149694141
14	21162	10	8.2933750864491
14	28063	11	8.2948573725368
14	36314	12	8.253172058796
14	46035	13	8.278320645229
14	57346	14	8.2846981213754
14	70367	15	8.2978381621465
14	85218	16	7.8649188511271
14	102019	17	5.1271893609212
14	120890	18	3.8322296998849
14	141951	19	6.2189780973447
14	165322	20	8.1161417512283
14	191123	21	8.3159384817933
14	219474	22	8.2860806869273
14	247825	23	8.2246607291
14	281636	24	8.2464355609589
14	318357	25	8.2326812187163
14	358108	26	8.2334232221125
14	401009	27	8.2069475789461
14	447180	28	8.3097884811368
14	496741	29	6.2816239353664
14	549812	30	3.858666432225
14	606513	31	5.4967002147127
14	667158	32	7.7852503649302
14	727609	33	8.2926873721019
14	788254	34	8.2049177994858
14	852775	35	8.2928301491775
14	921292	36	8.2000745636038
14	997839	37	8.2579541610088
14	1078413	38	8.3192560472758
14	1159096	39	8.2473985845014
14	1249057	40	8.260995116136
14	1338568	41	8.2586821167613
14	1428087	42	8.2983134118048
14	1522533	43	8.2933880942664
14	1622029	44	8.288194264269
14	1731094	45	7.7386884291025
14	1845455	46	5.1020248107767
14	1965510	47	4.278046811041
14	2091339	48	6.5220378484805
14	2221627	49	8.322945368553
14	2358510	50	8.2559717092337
14	2501071	51	8.3055500699114
14	2648757	52	8.2011094015697
14	2803319	53	8.2706591598992
14	2963558	54	8.3235661088116
14	3129909	55	8.3075032477942
14	3303295	56	8.3199290127913
14	3482529	57	8.2339326039166
14	3669367	58	8.2466718748212
14	3861660	59	8.2666342458338
14	4054707	60	8.3192888407898
14	4254497	61	8.2597291644383
14	4454445	62	8.3144141281419
14	4661380	63	8.2094529113197
14	4860826	64	8.2582020588522
14	5060474	65	8.2845047452208
6	575	3	299.83127039869
6	1386	4	299.83127039869
6	2707	5	299.93646498147
6	4658	6	300.10985683792
6	7359	7	300.34799818471
6	10930	8	300.63086481251
6	15491	9	300.91457190793
6	21162	10	301.19820799682
6	28063	11	301.4826205047
6	36314	12	301.76658137676
6	46035	13	302.05020849181
6	57346	14	302.33496898073
6	70367	15	302.61934505319
6	85218	16	302.90375691434
6	102019	17	303.18553298848
6	120890	18	303.40311750814
6	141951	19	303.54036132583
6	165322	20	303.15498945469
6	191123	21	296.49052459998
6	219474	22	288.28709620549
6	247825	23	280.03845039138
6	281636	24	271.82951398566
6	318357	25	263.61028784315
6	358108	26	255.39717436981
6	401009	27	247.15848259283
6	447180	28	238.92806777077
6	496741	29	230.69999766646
6	549812	30	223.25781548937
6	606513	31	218.38402053604
6	667158	32	214.02497371022
6	727609	33	210.03082694845
6	788254	34	210.03861650499
6	852775	35	210.04645328423
6	921292	36	210.5914782922
6	997839	37	211.57867646449
6	1078413	38	212.56752802455
6	1159096	39	213.55771108896
6	1249057	40	214.54583024728
6	1338568	41	215.53264333327
6	1428087	42	216.51928075379
6	1522533	43	217.50765434652
6	1622029	44	218.49791615284
6	1731094	45	219.48882098114
6	1845455	46	220.46645027693
6	1965510	47	221.21307580425
6	2091339	48	221.70161601342
6	2221627	49	222.34270369254
6	2358510	50	223.14128122697
6	2501071	51	223.90085566111
6	2648757	52	224.65876027911
6	2803319	53	225.41682755181
6	2963558	54	226.17608353832
6	3129909	55	226.93633955241
6	3303295	56	227.69556800648
6	3482529	57	228.45635604131
6	3669367	58	229.21472656105
6	3861660	59	229.97248308417
6	4054707	60	230.73004113366
6	4254497	61	231.48957775985
6	4454445	62	232.24974335571
6	4661380	63	233.0075794957
6	4860826	64	233.7653754282
6	5060474	65	234.52324574971
5	575	3	185.10409879745
5	1386	4	185.10409879745
5	2707	5	188.16333432506
5	4658	6	193.20586135817
5	7359	7	200.13141255481
5	10930	8	208.35765020354
5	15491	9	216.60833006512
5	21162	10	224.8569449372
5	28063	11	233.12813938062
5	36314	12	241.38619949403
5	46035	13	249.63455339185
5	57346	14	257.91586770942
5	70367	15	266.18600254934
5	85218	16	274.45717818462
5	102019	17	282.65170069707
5	120890	18	288.97942476021
5	141951	19	292.97070598301
5	165322	20	298.07356308439
5	191123	21	300.42235324987
5	219474	22	301.2541194883
5	247825	23	302.09047043464
5	281636	24	302.92279514419
5	318357	25	303.75616315602
5	358108	26	304.58891138896
5	401009	27	305.3841483263
5	447180	28	306.14331645595
5	496741	29	306.90226831036
5	549812	30	307.58873037164
5	606513	31	308.03828605978
5	667158	32	308.44036171421
5	727609	33	304.6783963357
5	788254	34	296.46820374084
5	852775	35	288.20823842151
5	921292	36	279.97312172451
5	997839	37	271.77462128867
5	1078413	38	263.56238976956
5	1159096	39	255.3391003501
5	1249057	40	247.13295129353
5	1338568	41	238.93764892913
5	1428087	42	230.74380543426
5	1522533	43	222.53554334649
5	1622029	44	214.31159998981
5	1731094	45	206.08231645318
5	1845455	46	197.96328378822
5	1965510	47	191.76269521041
5	2091339	48	187.7054580414
5	2221627	49	182.12390969011
5	2358510	50	174.63082919434
5	2501071	51	166.39504378104
5	2648757	52	158.17736356827
5	2803319	53	149.95791975053
5	2963558	54	141.72558714742
5	3129909	55	133.48241161408
5	3303295	56	125.25037753507
5	3482529	57	117.00143349709
5	3669367	58	108.77870168362
5	3861660	59	100.56262720896
5	4054707	60	92.348704710601
5	4254497	61	84.113329235007
5	4454445	62	75.871134073196
5	4661380	63	67.654196342225
5	4860826	64	59.43769456616
5	5060474	65	51.220386217531
83	120890	18	4.4542252105245
83	141951	19	4.921043124385
83	165322	20	2.2069567844527
83	191123	21	1.4789614368548
83	219474	22	1.6869089929107
83	247825	23	1.4705591247036
83	281636	24	1.5725539318491
83	318357	25	1.7071592240002
83	358108	26	1.5853989003553
83	401009	27	1.4875931929596
83	447180	28	1.629655055143
83	496741	29	1.3497758342228
83	549812	30	1.8000349065559
83	606513	31	1.3436285616238
83	667158	32	1.7160841937074
83	727609	33	1.4671527909281
83	788254	34	1.4901234127994
83	852775	35	1.8009929893073
83	921292	36	1.5437888494995
83	997839	37	1.5338441750665
83	1078413	38	1.3896828065779
83	1159096	39	0.973
83	1249057	40	0.973
83	1338568	41	5.0009266624545
83	1428087	42	4.9723513013236
83	1522533	43	2.2519384428903
83	1622029	44	1.6776711723415
83	1731094	45	1.3769459284705
83	1845455	46	1.7844586249376
83	1965510	47	1.3545807238917
83	2091339	48	1.7588976596096
83	2221627	49	1.3993139755568
83	2358510	50	1.5103377949243
83	2501071	51	0.973
83	2648757	52	0.973
83	2803319	53	0.973
83	2963558	54	0.973
83	3129909	55	0.973
83	3303295	56	0.973
83	3482529	57	0.973
83	3669367	58	1.1767422483526
83	3861660	59	1.8757510541327
83	4054707	60	1.9236519955326
83	4254497	61	1.3224574466181
83	4454445	62	3.9828666041193
83	4661380	63	2.3011165658686
83	4860826	64	1.2866912124456
83	5060474	65	4.3267123123669
82	120890	18	2.042353647484
82	141951	19	1.7723156969016
82	165322	20	0.32574137626953
82	191123	21	-0.039434562290554
82	219474	22	0.063081089288461
82	247825	23	-0.044219619717914
82	281636	24	0.006988882697188
82	318357	25	0.071775725507177
82	358108	26	0.010567797236146
82	401009	27	-0.037157501999756
82	447180	28	0.032815847892781
82	496741	29	-0.10473269705661
82	549812	30	0.11728440683102
82	606513	31	-0.10803239510627
82	667158	32	0.076770528892521
82	727609	33	-0.046495156197343
82	788254	34	-0.033931082375348
82	852775	35	0.11748527089134
82	921292	36	-0.010316221318208
82	997839	37	-0.014805378906894
82	1078413	38	-0.084861286843662
82	1159096	39	-2.720129655132
82	1249057	40	-1.8261304409063
82	1338568	41	2.4307496085833
82	1428087	42	1.8028882972617
82	1522533	43	0.34777296380009
82	1622029	44	0.056777669575531
82	1731094	45	-0.091305658018682
82	1845455	46	0.10925309368642
82	1965510	47	-0.1027348403004
82	2091339	48	0.096787784839981
82	2221627	49	-0.080560528112109
82	2358510	50	-0.023931015201379
82	2501071	51	-0.63458511843091
82	2648757	52	-2.5799029717874
82	2803319	53	-2.1751764027018
82	2963558	54	-1.4549813599876
82	3129909	55	-0.83256105750854
82	3303295	56	-0.10254212997092
82	3482529	57	-0.43868960421765
82	3669367	58	0.43556962224597
82	3861660	59	1.4677975747259
82	4054707	60	0.97116900336573
82	4254497	61	0.0934794364084
82	4454445	62	2.1287391333096
82	4661380	63	0.64757987046782
82	4860826	64	-0.082950070088418
82	5060474	65	1.6141077775187
79	102019	17	4.1058069964494
79	120890	18	6.1481606439334
79	141951	19	7.9204763408351
79	165322	20	8.2462177171046
79	191123	21	8.206783154814
79	219474	22	8.2698642441025
79	247825	23	8.2256446243846
79	281636	24	8.2326335070818
79	318357	25	8.304409232589
79	358108	26	8.3149770298251
79	401009	27	8.2778195278253
79	447180	28	8.3106353757181
79	496741	29	8.2059026786615
79	549812	30	8.3231870854925
79	606513	31	8.2151546903863
79	667158	32	8.2919252192788
79	727609	33	8.2454300630814
79	788254	34	8.2114989807061
79	852775	35	8.3289842515974
79	921292	36	8.3186680302792
79	997839	37	8.3038626513723
79	1078413	38	8.2190013645287
79	1159096	39	5.4988717093966
79	1249057	40	3.6727412684904
79	1338568	41	6.1034908770736
79	1428087	42	7.9063791743353
79	1522533	43	8.2541521381354
79	1622029	44	8.3109298077109
79	1731094	45	8.2196241496922
79	1845455	46	8.3288772433787
79	1965510	47	8.2261424030783
79	2091339	48	8.3229301879182
79	2221627	49	8.2423696598061
79	2358510	50	8.2184386446048
79	2501071	51	7.5838535261738
79	2648757	52	5.0039505543865
79	2803319	53	2.8287741516847
79	2963558	54	1.3737927916971
79	3129909	55	0.54123173418857
79	3303295	56	0.43868960421765
79	3482529	57	0
79	3669367	58	0.43556962224597
79	3861660	59	1.9033671969719
79	4054707	60	2.8745362003377
79	4254497	61	2.968015636746
79	4454445	62	5.0967547700556
79	4661380	63	5.7443346405234
79	4860826	64	5.661384570435
79	5060474	65	7.2754923479537
71	85218	16	219.17269889495
71	102019	17	219.17269889495
71	120890	18	222.41190383017
71	141951	19	227.59409454483
71	165322	20	234.66939122017
71	191123	21	242.87049038376
71	219474	22	251.10646914377
71	247825	23	259.3248520925
71	281636	24	267.55002597814
71	318357	25	275.79182262922
71	358108	26	284.0379751492
71	401009	27	292.2769370784
71	447180	28	300.53088179039
71	496741	29	308.74872700528
71	549812	30	316.96918206902
71	606513	31	325.21501007549
71	667158	32	333.45463477647
71	727609	33	341.69684307467
71	788254	34	349.90739388746
71	852775	35	358.11683478873
71	921292	36	366.3546723867
71	997839	37	374.60634524954
71	1078413	38	382.83381760106
71	1159096	39	391.06533552914
71	1249057	40	397.78081326887
71	1338568	41	402.02983973741
71	1428087	42	407.06999634908
71	1522533	43	408.42128923949
71	1622029	44	407.35096106263
71	1731094	45	406.27646439258
71	1845455	46	405.20510260764
71	1965510	47	404.13303403903
71	2091339	48	403.0642290417
71	2221627	49	401.99272957538
71	2358510	50	400.92103943291
71	2501071	51	399.85263183416
71	2648757	52	398.77858945488
71	2803319	53	397.97443175422
71	2963558	54	397.49285160488
71	3129909	55	397.24216011902
71	3303295	56	397.13041194836
71	3482529	57	397.07243857852
71	3669367	58	397.0622714418
71	3861660	59	397.04182258097
71	4054707	60	396.89488926588
71	4254497	61	396.53998632563
71	4454445	62	396.23024287698
71	4661380	63	398.13312605685
71	4860826	64	399.88972603711
71	5060474	65	400.58687789269
70	85218	16	381.63845609776
70	102019	17	381.63845609776
70	120890	18	381.36343242967
70	141951	19	380.92344016997
70	165322	20	380.32271434885
70	191123	21	379.62640262438
70	219474	22	378.92712945884
70	247825	23	378.22935026007
70	281636	24	377.53099447896
70	318357	25	376.83122734722
70	358108	26	376.13109038181
70	401009	27	375.43156393123
70	447180	28	374.73076537223
70	496741	29	374.03303182959
70	549812	30	373.33507669855
70	606513	31	372.63496728586
70	667158	32	371.93538456286
70	727609	33	371.23558248035
70	788254	34	370.5384682666
70	852775	35	369.84144828954
70	921292	36	369.14201729995
70	997839	37	368.44141163158
70	1078413	38	367.74286069995
70	1159096	39	367.04396627993
70	1249057	40	366.47379077146
70	1338568	41	366.11302852623
70	1428087	42	365.54205965572
70	1522533	43	359.30988442204
70	1622029	44	351.1219322294
70	1731094	45	342.90209129114
70	1845455	46	334.70623205302
70	1965510	47	326.50496595834
70	2091339	48	318.32866600599
70	2221627	49	310.13175351283
70	2358510	50	301.93338235755
70	2501071	51	293.76012248266
70	2648757	52	285.65694103634
70	2803319	53	279.5880722567
70	2963558	54	275.8923745928
70	3129909	55	273.96854127055
70	3303295	56	273.11097383588
70	3482529	57	272.66607998429
70	3669367	58	272.58805628776
70	3861660	59	272.43112953876
70	4054707	60	271.30354753596
70	4254497	61	268.57998434711
70	4454445	62	266.20297993538
70	4661380	63	263.41487105408
70	4860826	64	268.70340384659
70	5060474	65	274.07741299344
vector 315 Scenario.node[64].veinsmobility posx ETV
vector 316 Scenario.node[64].veinsmobility posy ETV
vector 317 Scenario.node[62].veinsmobility acceleration ETV
vector 318 Scenario.node[62].veinsmobility co2emission ETV
vector 319 Scenario.node[63].veinsmobility speed ETV
vector 320 Scenario.node[65].veinsmobility posx ETV
vector 321 Scenario.node[65].veinsmobility posy ETV
vector 322 Scenario.node[63].veinsmobility acceleration ETV
vector 323 Scenario.node[63].veinsmobility co2emission ETV
vector 324 Scenario.node[64].veinsmobility speed ETV
123	358108	26	4.36805876336
123	401009	27	3.5715201374936
123	447180	28	0.973
123	496741	29	1.6371609642194
123	549812	30	4.9355667313579
123	606513	31	2.7288037156741
123	667158	32	0.973
123	727609	33	0.973
123	788254	34	2.5437974135357
123	852775	35	0.973
123	921292	36	4.4704385198671
123	997839	37	5.7255964922278
123	1078413	38	0.973
123	1159096	39	1.487049572266
123	1249057	40	0.973
123	1338568	41	0.973
123	1428087	42	4.9448375769466
123	1522533	43	5.36878042435
123	1622029	44	2.237034976254
123	1731094	45	1.5451292702321
123	1845455	46	1.6900191099973
123	1965510	47	1.5896184904942
123	2091339	48	1.5239786263055
123	2221627	49	1.4697159419632
123	2358510	50	1.5014106709285
123	2501071	51	1.6833703467686
123	2648757	52	1.6603362158106
123	2803319	53	1.3501261269641
123	2963558	54	1.6554593101923
123	3129909	55	1.5554124170608
123	3303295	56	1.673293536957
123	3482529	57	1.4448981344874
123	3669367	58	1.45316536396
123	3861660	59	1.607664972644
123	4054707	60	1.5459501854694
123	4254497	61	1.6614085373708
123	4454445	62	1.6568865072472
123	4661380	63	1.3412015040838
123	4860826	64	6.6232136884245
123	5060474	65	0.973
123	5267734	66	0.973
123	5460204	67	4.4737697786202
122	358108	26	2.0498279588111
122	401009	27	1.20349507038
122	447180	28	-2.695946979829
122	496741	29	0.253396371137
122	549812	30	2.1037221684447
122	606513	31	0.67268967394339
122	667158	32	-1.8351789069533
122	727609	33	-0.40904460567925
122	788254	34	0.77140315483778
122	852775	35	-2.5059782171473
122	921292	36	2.2142946976457
122	997839	37	2.18946173565
122	1078413	38	-1.1700639133516
122	1159096	39	0.013068870086483
122	1249057	40	-0.99326458235608
122	1338568	41	-2.4109508992992
122	1428087	42	2.4971906384407
122	1522533	43	2.0165537509159
122	1622029	44	0.34216073474026
122	1731094	45	-0.0065040043089546
122	1845455	46	0.063948105117307
122	1965510	47	0.013207931616343
122	2091339	48	-0.019011884802021
122	2221627	49	-0.044934204074089
122	2358510	50	-0.028113148650153
122	2501071	51	0.061338050393386
122	2648757	52	0.047885230055545
122	2803319	53	-0.10468979128171
122	2963558	54	0.047692132729571
122	3129909	55	-0.0024832372902885
122	3303295	56	0.054547936606685
122	3482529	57	-0.057926326117013
122	3669367	58	-0.052339329812675
122	3861660	59	0.024904982950538
122	4054707	60	-0.0060237097344356
122	4254497	61	0.050245567255187
122	4454445	62	0.046160668311641
122	4661380	63	-0.1091101857624
122	4860826	64	2.0007597172959
122	5060474	65	-1.3139311054004
122	5267734	66	-0.88153387449887
122	5460204	67	1.2702763678705
119	318357	25	3.9223073492492
119	358108	26	5.9721353080603
119	401009	27	7.1756303784402
119	447180	28	4.4796833986113
119	496741	29	4.7330797697483
119	549812	30	6.8368019381929
119	606513	31	7.5094916121363
119	667158	32	5.6743127051831
119	727609	33	5.2652680995038
119	788254	34	6.0366712543416
119	852775	35	3.5306930371943
119	921292	36	5.7449877348401
119	997839	37	7.93444947049
119	1078413	38	6.7643855571385
119	1159096	39	6.7774544272249
119	1249057	40	5.7841898448689
119	1338568	41	3.3732389455697
119	1428087	42	5.8704295840103
119	1522533	43	7.8869833349263
119	1622029	44	8.2291440696665
119	1731094	45	8.2226400653576
119	1845455	46	8.2865881704749
119	1965510	47	8.2997961020912
119	2091339	48	8.2807842172892
119	2221627	49	8.2358500132151
119	2358510	50	8.2077368645649
119	2501071	51	8.2690749149583
119	2648757	52	8.3169601450139
119	2803319	53	8.2122703537322
119	2963558	54	8.2599624864617
119	3129909	55	8.2574792491714
119	3303295	56	8.3120271857781
119	3482529	57	8.2541008596611
119	3669367	58	8.2017615298484
119	3861660	59	8.226666512799
119	4054707	60	8.2206428030645
119	4254497	61	8.2708883703197
119	4454445	62	8.3170490386314
119	4661380	63	8.207938852869
119	4860826	64	10.208698570165
119	5060474	65	8.8947674647644
119	5267734	66	8.0132335902655
119	5460204	67	9.283509958136
110	281636	24	389.96270241794
110	318357	25	389.96270241794
110	358108	26	389.62129458139
110	401009	27	389.07336642939
110	447180	28	388.30800662183
110	496741	29	387.69178702774
110	549812	30	387.25066897325
110	606513	31	389.55685076005
110	667158	32	390.99220636627
110	727609	33	391.70162251277
110	788254	34	392.26483934414
110	852775	35	392.90351731114
110	921292	36	393.40565203581
110	997839	37	393.90604131931
110	1078413	38	394.76787018742
110	1159096	39	395.77903272722
110	1249057	40	396.65714079669
110	1338568	41	397.54175435108
110	1428087	42	398.1224085543
110	1522533	43	398.7567411452
110	1622029	44	399.66656803125
110	1731094	45	400.72604353069
110	1845455	46	401.79726397422
110	1965510	47	402.8885712114
110	2091339	48	403.96101981933
110	2221627	49	405.03241056937
110	2358510	50	406.10526622937
110	2501071	51	407.17576810183
110	2648757	52	408.24919654182
110	2803319	53	409.31787581465
110	2963558	54	410.3910061586
110	3129909	55	411.46394411529
110	3303295	56	412.50611071237
110	3482529	57	413.46141305438
110	3669367	58	414.38771296407
110	3861660	59	415.31540352032
110	4054707	60	416.24492322765
110	4254497	61	417.17324894316
110	4454445	62	418.10230197907
110	4661380	63	419.03083088269
110	4860826	64	419.95988457514
110	5060474	65	415.76133866475
110	5267734	66	405.94844860799
110	5460204	67	397.76366806237
109	281636	24	217.65291840921
109	318357	25	217.65291840921
109	358108	26	214.54929607097
109	401009	27	209.56826789796
109	447180	28	202.61064261437
109	496741	29	197.0088002055
109	549812	30	192.9987462431
109	606513	31	189.49222091206
109	667158	32	196.83442545601
109	727609	33	203.28348597456
109	788254	34	208.40349832351
109	852775	35	214.20950214991
109	921292	36	218.77423787503
109	997839	37	223.32310638902
109	1078413	38	230.23088902907
109	1159096	39	237.80127140137
109	1249057	40	244.3755001613
109	1338568	41	250.99843425438
109	1428087	42	255.34568226984
109	1522533	43	260.09555858899
109	1622029	44	266.98318585525
109	1731094	45	275.15017412223
109	1845455	46	283.34619180894
109	1965510	47	291.54275097388
109	2091339	48	299.74374485558
109	2221627	49	307.93982567514
109	2358510	50	316.14711297606
109	2501071	51	324.33639393054
109	2648757	52	332.54806296714
109	2803319	53	340.72340113387
109	2963558	54	348.93278975201
109	3129909	55	357.14070661805
109	3303295	56	365.34424174254
109	3482529	57	373.56064617238
109	3669367	58	381.75313878181
109	3861660	59	389.95793071404
109	4054707	60	398.17890024341
109	4254497	61	406.38930972729
109	4454445	62	414.60615186537
109	4661380	63	422.81835840988
109	4860826	64	431.03520635463
109	5060474	65	438.07574439619
109	5267734	66	439.04575429838
109	5460204	67	439.65875463883
63	57346	14	4.0909019505627
63	70367	15	5.0896841616133
63	85218	16	2.5396362985133
63	102019	17	1.5575511695945
63	120890	18	1.4709917487578
63	141951	19	1.6700822975009
63	165322	20	1.5856513935904
63	191123	21	1.4599973564643
63	219474	22	1.6352873794833
63	247825	23	1.6580639254237
63	281636	24	1.3075231366968
63	318357	25	1.6388178909502
63	358108	26	1.6905095885083
63	401009	27	0.973
63	447180	28	0.973
63	496741	29	0.973
63	549812	30	5.1677268363157
63	606513	31	4.4803477687275
63	667158	32	1.5177360008078
63	727609	33	1.5663001745503
63	788254	34	1.7646993825518
63	852775	35	1.3796308950087
63	921292	36	1.5945678665752
63	997839	37	0.973
63	1078413	38	0.973
63	1159096	39	0.973
63	1249057	40	5.1941598332911
63	1338568	41	4.920316961249
63	1428087	42	2.0445301386481
63	1522533	43	1.6327496333857
63	1622029	44	1.6328437926311
63	1731094	45	1.3158386105473
63	1845455	46	1.5693954489889
63	1965510	47	1.7373227964278
63	2091339	48	1.4104470047467
63	2221627	49	1.7000354840135
63	2358510	50	1.4039183202211
63	2501071	51	1.6497158816898
63	2648757	52	1.5941001876549
63	2803319	53	1.6253868072075
63	2963558	54	0.973
63	3129909	55	0.973
63	3303295	56	0.973
63	3482529	57	4.4383300880944
63	3669367	58	5.203886679712
63	3861660	59	2.556732822618
63	4054707	60	1.6067363771915
63	4254497	61	1.5478015446007
63	4454445	62	1.5431292323934
63	4661380	63	1.3793891299408
63	4860826	64	1.6177355039701
63	5060474	65	1.5548170157849
63	5267734	66	1.7377664015912
63	5460204	67	1.3258182707367
62	57346	14	1.8861892219051
62	70367	15	1.8969616924273
62	85218	16	0.49017363971663
62	102019	17	-0.0020296343253001
62	120890	18	-0.044177410530391
62	141951	19	0.053995473533869
62	165322	20	0.011317337935324
62	191123	21	-0.050139722174499
62	219474	22	0.036653528115712
62	247825	23	0.046243980936707
62	281636	24	-0.12606013358105
62	318357	25	0.03995533890091
62	358108	26	0.063343607082498
62	401009	27	-0.8828871868653
62	447180	28	-2.6904127913385
62	496741	29	-0.25484245013305
62	549812	30	2.2751793611702
62	606513	31	1.4735959923632
62	667158	32	-0.019865497967693
62	727609	33	0.0045295945554962
62	788254	34	0.10015196011169
62	852775	35	-0.090017737939487
62	921292	36	0.017805658041034
62	997839	37	-0.34097950732514
62	1078413	38	-2.7724320654828
62	1159096	39	-1.3457070636781
62	1249057	40	2.487938766554
62	1338568	41	1.747409926923
62	1428087	42	0.24315358012487
62	1522533	43	0.034962685450445
62	1622029	44	0.033735395532567
62	1731094	45	-0.12190575744724
62	1845455	46	0.0060865046014094
62	1965510	47	0.087055063657463
62	2091339	48	-0.074531058077701
62	2221627	49	0.068659699787386
62	2358510	50	-0.07760675537167
62	2501071	51	0.044766753385774
62	2648757	52	0.016251346804202
62	2803319	53	0.030782352553214
62	2963558	54	-2.1018949331138
62	3129909	55	-2.3502911017075
62	3303295	56	-0.15401821935362
62	3482529	57	2.1476869394281
62	3669367	58	1.9534902258054
62	3861660	59	0.49671269254233
62	4054707	60	0.021008150824345
62	4254497	61	-0.008116567824036
62	4454445	62	-0.010120820417068
62	4661380	63	-0.089911004039459
62	4860826	64	0.029411899915431
62	5060474	65	-0.0021906756167294
62	5267734	66	0.086121784402057
62	5460204	67	-0.11690774574643
59	46035	13	4.0047186875613
59	57346	14	5.8909079094664
59	70367	15	7.7878696018937
59	85218	16	8.2780432416103
59	102019	17	8.276013607285
59	120890	18	8.2318361967546
59	141951	19	8.2858316702885
59	165322	20	8.2971490082238
59	191123	21	8.2470092860493
59	219474	22	8.283662814165
59	247825	23	8.3299067951017
59	281636	24	8.2038466615207
59	318357	25	8.2438020004216
59	358108	26	8.3071456075041
59	401009	27	7.4242584206388
59	447180	28	4.7338456293003
59	496741	29	4.4790031791673
59	549812	30	6.7541825403374
59	606513	31	8.2277785327006
59	667158	32	8.2079130347329
59	727609	33	8.2124426292884
59	788254	34	8.3125945894001
59	852775	35	8.2225768514606
59	921292	36	8.2403825095017
59	997839	37	7.8994030021765
59	1078413	38	5.1269709366937
59	1159096	39	3.7812638730156
59	1249057	40	6.2692026395696
59	1338568	41	8.0166125664926
59	1428087	42	8.2597661466175
59	1522533	43	8.2947288320679
59	1622029	44	8.3284642276005
59	1731094	45	8.2065584701532
59	1845455	46	8.2126449747547
59	1965510	47	8.2997000384121
59	2091339	48	8.2251689803344
59	2221627	49	8.2938286801218
59	2358510	50	8.2162219247501
59	2501071	51	8.2609886781359
59	2648757	52	8.2772400249401
59	2803319	53	8.3080223774933
59	2963558	54	6.2061274443795
59	3129909	55	3.855836342672
59	3303295	56	3.7018181233184
59	3482529	57	5.8495050627465
59	3669367	58	7.8029952885519
59	3861660	59	8.2997079810943
59	4054707	60	8.3207161319186
59	4254497	61	8.3125995640946
59	4454445	62	8.3024787436775
59	4661380	63	8.212567739638
59	4860826	64	8.2419796395535
59	5060474	65	8.2397889639367
59	5267734	66	8.3259107483388
59	5460204	67	8.2090030025924
51	36314	12	210.11306518521
51	46035	13	210.11306518521
51	57346	14	210.06238564646
51	70367	15	210.0328857261
51	85218	16	210.03948770452
51	102019	17	210.04731391463
51	120890	18	210.70016511822
51	141951	19	211.68804069443
51	165322	20	212.67602567872
51	191123	21	213.66636709614
51	219474	22	214.65531698336
51	247825	23	215.64306287743
51	281636	24	216.63264494482
51	318357	25	217.61837630932
51	358108	26	218.60633516816
51	401009	27	219.59570177824
51	447180	28	220.56473426185
51	496741	29	221.27255145934
51	549812	30	221.75221350983
51	606513	31	222.92700802545
51	667158	32	229.73745815124
51	727609	33	237.98557687355
51	788254	34	246.23656867226
51	852775	35	254.47532127472
51	921292	36	262.75102979978
51	997839	37	271.02035879694
51	1078413	38	279.23215069627
51	1159096	39	285.5649645873
51	1249057	40	289.56174873413
51	1338568	41	294.751535688
51	1428087	42	299.65438057175
51	1522533	43	299.93797268418
51	1622029	44	300.22220505927
51	1731094	45	300.50682794485
51	1845455	46	300.79103082769
51	1965510	47	301.07422708935
51	2091339	48	301.3582279102
51	2221627	49	301.64267859743
51	2358510	50	301.92664816952
51	2501071	51	302.21054470195
51	2648757	52	302.49504018699
51	2803319	53	302.77926409587
51	2963558	54	303.06374359994
51	3129909	55	303.31947764078
51	3303295	56	303.48630822825
51	3482529	57	303.59585473521
51	3669367	58	302.16917296417
51	3861660	59	295.50067852468
51	4054707	60	287.30565572535
51	4254497	61	279.07495163268
51	4454445	62	270.84526662115
51	4661380	63	262.61554252925
51	4860826	64	254.40430513891
51	5060474	65	246.19192636432
51	5267734	66	237.97567997194
51	5460204	67	229.72504681557
50	36314	12	310.74988059428
50	46035	13	310.74988059428
50	57346	14	307.57734146808
50	70367	15	302.50844468907
50	85218	16	295.54995943099
50	102019	17	287.3011339804
50	120890	18	279.0704974941
50	141951	19	270.86637134248
50	165322	20	262.66133657685
50	191123	21	254.43673206451
50	219474	22	246.22368395628
50	247825	23	238.02063479116
50	281636	24	229.80233654212
50	318357	25	221.61601767703
50	358108	26	213.41119987834
[...]
314	6668661	73	8.281121615381
314	6861862	74	8.2244148509181
314	7048651	75	8.3237548254221
314	7235102	76	7.4726870042254
314	7421553	77	5.1073726358059
314	7608342	78	3.099483549638
314	7788495	79	1.5749391498798
314	7968648	80	0.66725120274692
314	8148981	81	0.43360093102092
314	8297452	82	0
314	8445923	83	0
314	8588484	84	0
314	8731045	85	0
314	8873902	86	0
314	9005003	87	0
314	9136388	88	0
314	9267489	89	0
314	9393040	90	0
314	9513576	91	0
314	9628387	92	0.44981070327689
314	9738008	93	1.8552974562912
314	9842559	94	3.8097299481487
314	9942160	95	5.5148628328695
314	10041761	96	7.505261181306
314	10141610	97	7.630766427632
314	10236381	98	7.8557919119097
314	10326442	99	8.0146252009218
314	10411913	100	8.0827940205153
314	10497614	101	7.6756475648092
314	10583315	102	6.7465445997614
314	10664316	103	6.9391779689952
314	10745317	104	5.2961250589116
314	10826318	105	3.9498848880282
314	10907319	106	2.668757281581
314	10988320	107	2.1903461661131
314	11064971	108	3.2767496165314
314	11137392	109	3.4534518060962
314	11209813	110	1.2189445059615
314	11282234	111	0.51396497149089
314	11350545	112	0.95673712108925
314	11414866	113	3.0771462942391
314	11479187	114	5.1036147100932
314	11535888	115	6.3709510419881
314	11588959	116	3.9583124362548
314	11642030	117	5.058933054581
314	11688201	118	7.1113045528901
314	11734372	119	8.2498974871077
314	11774123	120	8.2427488159714
314	11810844	121	6.0869906761588
314	11844655	122	3.6844164737085
314	11878466	123	5.4113819162491
314	11912277	124	7.2333824530536
314	11946088	125	8.2762178963493
314	11977109	126	8.0833039447714
314	12005460	127	5.370704112471
314	12031261	128	3.5929327095101
314	12057062	129	6.0234584281488
314	12082863	130	7.5862790284472
314	12106234	131	6.7240354601654
314	12127295	132	7.4179243135217
314	12146166	133	8.3124822184513
314	12162967	134	8.2400951656047
314	12179768	135	8.3180943911499
314	12192789	136	8.2672501165792
314	12204100	137	8.2713603928057
314	12215411	138	8.2083286724146
314	12226722	139	8.3165154663217
314	12234973	140	8.2841764948098
314	12243224	141	8.2525943553424
314	12251475	142	8.2370824272302
314	12259726	143	8.3222348642605
314	12267977	144	8.3151963973697
314	12276228	145	7.631297842705
314	12284479	146	7.1875494022412
314	12292730	147	6.6499787489691
314	12300981	148	6.1246237534931
314	12309232	149	5.857186300017
314	12317483	150	5.7312168956247
309	4860826	64	300.14945456901
309	5060474	65	300.14945456901
309	5267734	66	300.04282741393
309	5460204	67	299.86535134672
309	5659813	68	299.6147775985
309	5853014	69	299.33242461639
309	6060431	70	299.04904521439
309	6268055	71	298.76586984289
309	6475116	72	298.4831801489
309	6668661	73	298.19910725191
309	6861862	74	297.91555616612
309	7048651	75	297.63287409842
309	7235102	76	297.34957669131
309	7421553	77	297.07095758167
309	7608342	78	296.85963383601
309	7788495	79	296.72403493525
309	7968648	80	296.64804175263
309	8148981	81	296.61281504946
309	8297452	82	296.59636147511
309	8445923	83	296.59059936014
309	8588484	84	296.59059936014
309	8731045	85	296.59059936014
309	8873902	86	296.59059936014
309	9005003	87	296.59059936014
309	9136388	88	296.59059936014
309	9267489	89	296.59059936014
309	9393040	90	296.59059936014
309	9513576	91	296.59059936014
309	9628387	92	296.59059936014
309	9738008	93	296.58516077117
309	9842559	94	296.54758636721
309	9942160	95	296.4466041877
309	10041761	96	296.65724182483
309	10141610	97	302.62854319972
309	10236381	98	310.17914168198
309	10326442	99	317.9491394477
309	10411913	100	325.87895127127
309	10497614	101	333.88112213305
309	10583315	102	341.86006844987
309	10664316	103	348.82781946231
309	10745317	104	355.60507081749
309	10826318	105	361.64400572948
309	10907319	106	366.20528773485
309	10988320	107	369.40548434631
309	11064971	108	371.59598457631
309	11137392	109	374.31035593842
309	11209813	110	377.93345389842
309	11282234	111	379.80067920413
309	11350545	112	380.5891808477
309	11414866	113	381.10411787057
309	11479187	114	383.27045368594
309	11535888	115	387.19185410225
309	11588959	116	388.50386800859
309	11642030	117	389.09656824609
309	11688201	118	389.57581454815
309	11734372	119	390.28025025274
309	11774123	120	391.15349801232
309	11810844	121	392.05693852479
309	11844655	122	392.85991637988
309	11878466	123	393.37967860827
309	11912277	124	393.84888663377
309	11946088	125	394.62548918724
309	11977109	126	395.69456269711
309	12005460	127	396.78494118325
309	12031261	128	397.65204973743
309	12057062	129	398.19438095535
309	12082863	130	398.85599160793
309	12106234	131	399.77235887913
309	12127295	132	400.64926969361
309	12146166	133	401.53893802547
309	12162967	134	402.61177180531
309	12179768	135	403.686803023
309	12192789	136	404.7567022705
309	12204100	137	405.8268199247
309	12215411	138	406.89857234874
309	12226722	139	407.97266329356
309	12234973	140	409.04456997385
309	12243224	141	410.11609550604
309	12251475	142	411.18695855783
309	12259726	143	412.24814371106
309	12267977	144	413.22187027062
309	12276228	145	414.15241128565
309	12284479	146	415.04963360241
309	12292730	147	415.87579326448
309	12300981	148	416.64543672589
309	12309232	149	417.35995488626
309	12317483	150	418.02752841745
308	4860826	64	290.42231334181
308	5060474	65	290.42231334181
308	5267734	66	287.31398625022
308	5460204	67	282.14031667807
308	5659813	68	274.83574994336
308	5853014	69	266.60477516963
308	6060431	70	258.34387885518
308	6268055	71	250.08893030832
308	6475116	72	241.84813992362
308	6668661	73	233.56702728403
308	6861862	74	225.30112615274
308	7048651	75	217.06055808487
308	7235102	76	208.80205203341
308	7421553	77	200.67992473798
308	7608342	78	194.5195491449
308	7788495	79	190.56665612732
308	7968648	80	188.35135114124
308	8148981	81	187.3244446677
308	8297452	82	186.84480052021
308	8445923	83	186.67682700489
308	8588484	84	186.67682700489
308	8731045	85	186.67682700489
308	8873902	86	186.67682700489
308	9005003	87	186.67682700489
308	9136388	88	186.67682700489
308	9267489	89	186.67682700489
308	9393040	90	186.67682700489
308	9513576	91	186.67682700489
308	9628387	92	186.67682700489
308	9738008	93	186.51828471386
308	9842559	94	185.42293955814
308	9942160	95	182.4791712088
308	10041761	96	177.75178318155
308	10141610	97	175.45028424506
308	10236381	98	174.77442647882
308	10326442	99	174.07893017531
308	10411913	100	173.36912883726
308	10497614	101	172.65285060627
308	10583315	102	171.93865121568
308	10664316	103	171.31496441177
308	10745317	104	170.70832932543
308	10826318	105	170.16778130533
308	10907319	106	169.75949872024
308	10988320	107	169.47304755502
308	11064971	108	169.27697480716
308	11137392	109	169.03401009782
308	11209813	110	168.70970482588
308	11282234	111	168.54256857474
308	11350545	112	168.47198940664
308	11414866	113	168.42589714166
308	11479187	114	168.36822825422
308	11535888	115	169.40827300291
308	11588959	116	175.21266335942
308	11642030	117	180.18248891403
308	11688201	118	184.20099669969
308	11734372	119	190.36227496238
308	11774123	120	198.30067286472
308	11810844	121	206.5135427982
308	11844655	122	213.81314093685
308	11878466	123	218.53812229332
308	11912277	124	222.80353261302
308	11946088	125	229.16490945457
308	11977109	126	237.16886028871
308	12005460	127	245.33231744389
308	12031261	128	251.82419491672
308	12057062	129	255.88452600145
308	12082863	130	260.83993705947
308	12106234	131	267.79867674091
308	12127295	132	274.55836144983
308	12146166	133	281.41638773896
308	12162967	134	289.45325301813
308	12179768	135	297.6460013155
308	12192789	136	305.83067222199
308	12204100	137	314.01701392776
308	12215411	138	322.21586153367
308	12226722	139	330.43259869607
308	12234973	140	338.63262635391
308	12243224	141	346.82973824957
308	12251475	142	355.02178220627
308	12259726	143	363.22758942411
308	12267977	144	371.44205319291
308	12276228	145	379.67205549416
308	12284479	146	387.60737657339
308	12292730	147	394.91419681038
308	12300981	148	401.72116969628
308	12309232	149	408.04059679205
308	12317483	150	413.94483057568
323	5460204	67	4.1793317029978
323	5659813	68	5.0555801189218
323	5853014	69	2.5612940680751
323	6060431	70	1.5799992752867
323	6268055	71	1.5328883422364
323	6475116	72	1.5811418896292
323	6668661	73	1.5642642821773
323	6861862	74	1.4536113791239
323	7048651	75	1.6864693583226
323	7235102	76	1.4799878578654
323	7421553	77	1.4911640382357
323	7608342	78	1.6854108974789
323	7788495	79	1.4507516642535
323	7968648	80	1.4766465501194
323	8148981	81	1.7349291170299
323	8297452	82	1.5617274115133
323	8445923	83	1.5573441073554
323	8588484	84	0.973
323	8731045	85	0.973
323	8873902	86	0.973
323	9005003	87	5.1449836494725
323	9136388	88	4.6062080188315
323	9267489	89	1.7366414596488
323	9393040	90	1.5509279723707
323	9513576	91	1.4090404979908
323	9628387	92	1.6783794966047
323	9738008	93	0.973
323	9842559	94	0.973
323	9942160	95	0.973
323	10041761	96	0.973
323	10141610	97	0.973
323	10236381	98	0.973
323	10326442	99	0.973
323	10411913	100	0.973
323	10497614	101	0.973
323	10583315	102	0.973
323	10664316	103	0.973
323	10745317	104	0.973
323	10826318	105	0.973
323	10907319	106	0.973
323	10988320	107	0.973
323	11064971	108	0.973
323	11137392	109	0.973
323	11209813	110	0.973
323	11282234	111	0.973
323	11350545	112	0.973
323	11414866	113	0.973
323	11479187	114	0.973
323	11535888	115	0.973
323	11588959	116	0.973
323	11642030	117	0.973
323	11688201	118	0.973
323	11734372	119	0.973
323	11774123	120	0.973
323	11810844	121	0.973
323	11844655	122	0.973
323	11878466	123	0.973
323	11912277	124	0.973
323	11946088	125	0.973
323	11977109	126	0.973
323	12005460	127	0.973
323	12031261	128	0.973
323	12057062	129	0.973
323	12082863	130	0.973
323	12106234	131	0.973
323	12127295	132	0.973
323	12146166	133	0.973
323	12162967	134	0.973
323	12179768	135	0.973
323	12192789	136	0.973
323	12204100	137	0.973
323	12215411	138	0.973
323	12226722	139	0.973
323	12234973	140	0.973
323	12243224	141	1.3613434123176
323	12251475	142	2.3395905273651
323	12259726	143	3.4272505542035
323	12267977	144	4.4708620700583
323	12276228	145	5.248774409503
323	12284479	146	0.973
323	12292730	147	0.973
323	12300981	148	0.973
323	12309232	149	3.3821955516609
323	12317483	150	0.973
322	5460204	67	1.9347346202633
322	5659813	68	1.8746781406947
322	5853014	69	0.49881393819953
322	6060431	70	0.0080566906696191
322	6268055	71	-0.014990774241742
322	6475116	72	0.0088406609278167
322	6668661	73	0.00039344446966538
322	6861862	74	-0.053447177272757
322	7048651	75	0.061142291543074
322	7235102	76	-0.040769130296539
322	7421553	77	-0.034153166653123
322	7608342	78	0.061177224852145
322	7788495	79	-0.054687742546667
322	7968648	80	-0.04048683555331
322	8148981	81	0.086328713863622
322	8297452	82	-0.00036165824392853
322	8445923	83	-0.0024734176904904
322	8588484	84	-1.0313227032819
322	8731045	85	-2.5949700591486
322	8873902	86	-0.22886493122087
322	9005003	87	2.2780896151485
322	9136388	88	1.5337464977231
322	9267489	89	0.085455372934229
322	9393040	90	-0.0068472611322061
322	9513576	91	-0.075746521507389
322	9628387	92	0.057445804078597
322	9738008	93	-2.4108035963604
322	9842559	94	-2.414906864531
322	9942160	95	-1.6787672337404
322	10041761	96	-1.0007725086515
322	10141610	97	-0.36201809759098
322	10236381	98	-0.43590489898052
322	10326442	99	0
322	10411913	100	0
322	10497614	101	0
322	10583315	102	0
322	10664316	103	0
322	10745317	104	0
322	10826318	105	0
322	10907319	106	0
322	10988320	107	0
322	11064971	108	0
322	11137392	109	0
322	11209813	110	0
322	11282234	111	0
322	11350545	112	0
322	11414866	113	0
322	11479187	114	0
322	11535888	115	0
322	11588959	116	0
322	11642030	117	0
322	11688201	118	0
322	11734372	119	0
322	11774123	120	0
322	11810844	121	0
322	11844655	122	0
322	11878466	123	0
322	11912277	124	0
322	11946088	125	0
322	11977109	126	0
322	12005460	127	0
322	12031261	128	0
322	12057062	129	0
322	12082863	130	0
322	12106234	131	0
322	12127295	132	0
322	12146166	133	0
322	12162967	134	0
322	12179768	135	0
322	12192789	136	0
322	12204100	137	0
322	12215411	138	0
322	12226722	139	0
322	12234973	140	0
322	12243224	141	0.92589511669313
322	12251475	142	1.7231410388635
322	12259726	143	1.9037941225358
322	12267977	144	1.9336405612776
322	12276228	145	1.836617539554
322	12284479	146	-0.9285150320016
322	12292730	147	-1.6967332110035
322	12300981	148	-0.8069999172009
322	12309232	149	1.3064533468553
322	12317483	150	-2.2223573708194
319	5267734	66	3.9933915632763
319	5460204	67	5.9281261835396
319	5659813	68	7.8028043242344
319	5853014	69	8.3016182624339
319	6060431	70	8.3096749531035
319	6268055	71	8.2946841788618
319	6475116	72	8.3035248397896
319	6668661	73	8.3039182842593
319	6861862	74	8.2504711069865
319	7048651	75	8.3116133985296
319	7235102	76	8.2708442682331
319	7421553	77	8.2366911015799
319	7608342	78	8.2978683264321
319	7788495	79	8.2431805838854
319	7968648	80	8.2026937483321
319	8148981	81	8.2890224621957
319	8297452	82	8.2886608039518
319	8445923	83	8.2861873862613
319	8588484	84	7.2548646829794
319	8731045	85	4.6598946238308
319	8873902	86	4.4310296926099
319	9005003	87	6.7091193077584
319	9136388	88	8.2428658054816
319	9267489	89	8.3283211784158
319	9393040	90	8.3214739172836
319	9513576	91	8.2457273957762
319	9628387	92	8.3031731998548
319	9738008	93	5.8923696034944
319	9842559	94	3.4774627389634
319	9942160	95	1.798695505223
319	10041761	96	0.79792299657149
319	10141610	97	0.43590489898052
319	10236381	98	0
319	10326442	99	0
319	10411913	100	0
319	10497614	101	0
319	10583315	102	0
319	10664316	103	0
319	10745317	104	0
319	10826318	105	0
319	10907319	106	0
319	10988320	107	0
319	11064971	108	0
319	11137392	109	0
319	11209813	110	0
319	11282234	111	0
319	11350545	112	0
319	11414866	113	0
319	11479187	114	0
319	11535888	115	0
319	11588959	116	0
319	11642030	117	0
319	11688201	118	0
319	11734372	119	0
319	11774123	120	0
319	11810844	121	0
319	11844655	122	0
319	11878466	123	0
319	11912277	124	0
319	11946088	125	0
319	11977109	126	0
319	12005460	127	0
319	12031261	128	0
319	12057062	129	0
319	12082863	130	0
319	12106234	131	0
319	12127295	132	0
319	12146166	133	0
319	12162967	134	0
319	12179768	135	0
319	12192789	136	0
319	12204100	137	0
319	12215411	138	0
319	12226722	139	0
319	12234973	140	0
319	12243224	141	0.92589511669313
319	12251475	142	2.6490361555566
319	12259726	143	4.5528302780924
319	12267977	144	6.48647083937
319	12276228	145	8.323088378924
319	12284479	146	7.3945733469224
319	12292730	147	5.697840135919
319	12300981	148	4.890840218718
319	12309232	149	6.1972935655734
319	12317483	150	3.974936194754
313	5060474	65	574.66422865765
313	5267734	66	574.66422865765
313	5460204	67	571.4933673215
313	5659813	68	566.48255913505
313	5853014	69	559.49330328335
313	6060431	70	551.28566234882
313	6268055	71	543.07328247661
313	6475116	72	534.85076562242
313	6668661	73	526.61250642126
313	6861862	74	518.37266942012
313	7048651	75	510.14222816236
313	7235102	76	501.90614978415
313	7421553	77	493.66938338835
313	7608342	78	485.43869998215
313	7788495	79	477.2073867802
313	7968648	80	468.98874138763
313	8148981	81	460.76285998684
313	8297452	82	452.53171733164
313	8445923	83	444.29656106826
313	8588484	84	436.06039514275
313	8731045	85	428.03537248741
313	8873902	86	422.23840969982
313	9005003	87	418.3130214326
313	9136388	88	413.15554633021
313	9267489	89	413.51575833267
313	9393040	90	414.44617360434
313	9513576	91	415.37564699582
313	9628387	92	416.30482228502
313	9738008	93	417.23355816661
313	9842559	94	418.03392417562
313	9942160	95	418.54069256778
313	10041761	96	418.82294250948
313	10141610	97	418.95846649051
313	10236381	98	419.01715680598
313	10326442	99	419.04476418211
313	10411913	100	419.04476418211
313	10497614	101	419.04476418211
313	10583315	102	419.04476418211
313	10664316	103	419.04476418211
313	10745317	104	419.04476418211
313	10826318	105	419.04476418211
313	10907319	106	419.04476418211
313	10988320	107	419.04476418211
313	11064971	108	419.04476418211
313	11137392	109	419.04476418211
313	11209813	110	419.04476418211
313	11282234	111	419.04476418211
313	11350545	112	419.04476418211
313	11414866	113	419.04476418211
313	11479187	114	419.04476418211
313	11535888	115	419.04476418211
313	11588959	116	419.04476418211
313	11642030	117	419.04476418211
313	11688201	118	419.04476418211
313	11734372	119	419.04476418211
313	11774123	120	419.04476418211
313	11810844	121	419.04476418211
313	11844655	122	419.04476418211
313	11878466	123	419.04476418211
313	11912277	124	419.04476418211
313	11946088	125	419.04476418211
313	11977109	126	419.04476418211
313	12005460	127	419.04476418211
313	12031261	128	419.04476418211
313	12057062	129	419.04476418211
313	12082863	130	419.04476418211
313	12106234	131	419.04476418211
313	12127295	132	419.04476418211
313	12146166	133	419.04476418211
313	12162967	134	419.04476418211
313	12179768	135	419.04476418211
313	12192789	136	419.04476418211
313	12204100	137	419.04476418211
313	12215411	138	419.04476418211
313	12226722	139	419.04476418211
313	12234973	140	419.04476418211
313	12243224	141	419.04476418211
313	12251475	142	419.09727399739
313	12259726	143	419.31322845291
313	12267977	144	419.73186223647
313	12276228	145	419.75413712216
313	12284479	146	413.95057446504
313	12292730	147	405.77582770867
313	12300981	148	399.31575739408
313	12309232	149	394.29318654446
313	12317483	150	388.69996849689
312	5060474	65	350.46887561641
312	5267734	66	350.46887561641
312	5460204	67	350.75722299952
312	5659813	68	351.21288891319
312	5853014	69	351.84846815211
312	6060431	70	352.59484320107
312	6268055	71	353.34164919296
312	6475116	72	354.08937700764
312	6668661	73	354.83853637799
312	6861862	74	355.58783922813
312	7048651	75	356.33628766121
312	7235102	76	357.08524871491
312	7421553	77	357.83427233461
312	7608342	78	358.58274278784
312	7788495	79	359.33127051257
312	7968648	80	360.07864626965
312	8148981	81	360.82668004479
312	8297452	82	361.57519226057
312	8445923	83	362.32406946028
312	8588484	84	363.07303847524
312	8731045	85	363.80280683683
312	8873902	86	364.32996298546
312	9005003	87	364.68692449042
312	9136388	88	366.42309849976
312	9267489	89	374.04129319191
312	9393040	90	382.27018337862
312	9513576	91	390.49074327582
312	9628387	92	398.70866666105
312	9738008	93	406.92270378492
312	9842559	94	414.00139670612
312	9942160	95	418.48341841856
312	10041761	96	420.97972715957
312	10141610	97	422.17834458506
312	10236381	98	422.69742050278
312	10326442	99	422.94158896547
312	10411913	100	422.94158896547
312	10497614	101	422.94158896547
312	10583315	102	422.94158896547
312	10664316	103	422.94158896547
312	10745317	104	422.94158896547
312	10826318	105	422.94158896547
312	10907319	106	422.94158896547
312	10988320	107	422.94158896547
312	11064971	108	422.94158896547
312	11137392	109	422.94158896547
312	11209813	110	422.94158896547
312	11282234	111	422.94158896547
312	11350545	112	422.94158896547
312	11414866	113	422.94158896547
312	11479187	114	422.94158896547
312	11535888	115	422.94158896547
312	11588959	116	422.94158896547
312	11642030	117	422.94158896547
312	11688201	118	422.94158896547
312	11734372	119	422.94158896547
312	11774123	120	422.94158896547
312	11810844	121	422.94158896547
312	11844655	122	422.94158896547
312	11878466	123	422.94158896547
312	11912277	124	422.94158896547
312	11946088	125	422.94158896547
312	11977109	126	422.94158896547
312	12005460	127	422.94158896547
312	12031261	128	422.94158896547
312	12057062	129	422.94158896547
312	12082863	130	422.94158896547
312	12106234	131	422.94158896547
312	12127295	132	422.94158896547
312	12146166	133	422.94158896547
312	12162967	134	422.94158896547
312	12179768	135	422.94158896547
312	12192789	136	422.94158896547
312	12204100	137	422.94158896547
312	12215411	138	422.94158896547
312	12226722	139	422.94158896547
312	12234973	140	422.94158896547
312	12243224	141	422.94158896547
312	12251475	142	423.40600256315
312	12259726	143	425.31597282472
312	12267977	144	429.01850387541
312	12276228	145	434.61354655859
312	12284479	146	438.44643390765
312	12292730	147	439.05868276598
312	12300981	148	439.54251068049
312	12309232	149	439.91867686156
312	12317483	150	440.33758174829

