version 2
run WithBeaconing-0-20200404-22:22:59-17561
attr configname WithBeaconing
attr datetime 20200404-22:22:59
attr experiment WithBeaconing
attr inifile omnetpp.ini
attr iterationvars ""
attr iterationvarsf ""
attr measurement ""
attr network veins_myproject.src.Scenario
attr processid 17561
attr repetition 0
attr replication #0
attr resultdir results
attr runnumber 0
attr seedset 0
param *.rsu[*].appl.sendBeacons true
param *.node[*].appl.sendBeacons true
param **.debug false
param **.coreDebug false
param *.playgroundSizeX 6000m
param *.playgroundSizeY 6000m
param *.playgroundSizeZ 3m
param *.annotations.draw true
param *.manager.updateInterval 1s
param *.manager.host "\"localhost\""
param *.manager.port 9999
param *.manager.moduleType "\"veins_myproject.src.car.MyCar\""
param *.manager.autoShutdown true
param *.manager.launchConfig "xmldoc(\"sumo.launchd.xml\")"
param *.rsu[0].mobility.x 289
param *.rsu[0].mobility.y 432
param *.rsu[0].mobility.z 3
param *.rsu[*].applType "\"veins_myproject.src.MyRSUApp\""
param *.rsu[*].appl.headerLength "80 bit"
param *.rsu[*].appl.sendBeacons true
param *.rsu[*].appl.dataOnSch true
param *.rsu[*].appl.beaconInterval 1s
param *.rsu[*].appl.beaconUserPriority 7
param *.rsu[*].appl.dataUserPriority 5
param *.connectionManager.sendDirect true
param *.connectionManager.maxInterfDist 2600m
param *.connectionManager.drawMaxIntfDist false
param *.**.nic.mac1609_4.useServiceChannel false
param *.**.nic.mac1609_4.txPower 50mW
param *.**.nic.mac1609_4.bitrate 6Mbps
param *.**.nic.phy80211p.sensitivity -89dBm
param *.**.nic.phy80211p.useThermalNoise true
param *.**.nic.phy80211p.thermalNoise -110dBm
param *.**.nic.phy80211p.decider "xmldoc(\"config.xml\")"
param *.**.nic.phy80211p.analogueModels "xmldoc(\"config.xml\")"
param *.**.nic.phy80211p.usePropagationDelay true
param *.node[*].applType "\"veins_myproject.src.MyApplicaton\""
param *.node[*].appl.headerLength "80 bit"
param *.node[*].appl.sendBeacons true
param *.node[*].appl.dataOnSch false
param *.node[*].appl.beaconInterval 0.1s
param *.node[*].veinsmobilityType.debug true
param *.node[*].veinsmobility.x 0
param *.node[*].veinsmobility.y 0
param *.node[*].veinsmobility.z 1.895

vector 0 Scenario.node[0].veinsmobility posx ETV
vector 1 Scenario.node[0].veinsmobility posy ETV
vector 2 Scenario.node[1].veinsmobility posx ETV
vector 3 Scenario.node[1].veinsmobility posy ETV
vector 4 Scenario.node[0].veinsmobility speed ETV
vector 5 Scenario.node[2].veinsmobility posx ETV
vector 6 Scenario.node[2].veinsmobility posy ETV
vector 7 Scenario.node[0].veinsmobility acceleration ETV
vector 8 Scenario.node[0].veinsmobility co2emission ETV
vector 9 Scenario.node[1].veinsmobility speed ETV
vector 10 Scenario.node[3].veinsmobility posx ETV
vector 11 Scenario.node[3].veinsmobility posy ETV
vector 12 Scenario.node[1].veinsmobility acceleration ETV
vector 13 Scenario.node[1].veinsmobility co2emission ETV
vector 14 Scenario.node[2].veinsmobility speed ETV
vector 15 Scenario.node[4].veinsmobility posx ETV
vector 16 Scenario.node[4].veinsmobility posy ETV
vector 17 Scenario.node[2].veinsmobility acceleration ETV
vector 18 Scenario.node[2].veinsmobility co2emission ETV
vector 19 Scenario.node[3].veinsmobility speed ETV
vector 20 Scenario.node[5].veinsmobility posx ETV
vector 21 Scenario.node[5].veinsmobility posy ETV
vector 22 Scenario.node[3].veinsmobility acceleration ETV
vector 23 Scenario.node[3].veinsmobility co2emission ETV
vector 24 Scenario.node[4].veinsmobility speed ETV
vector 25 Scenario.node[6].veinsmobility posx ETV
vector 26 Scenario.node[6].veinsmobility posy ETV
vector 27 Scenario.node[4].veinsmobility acceleration ETV
vector 28 Scenario.node[4].veinsmobility co2emission ETV
vector 29 Scenario.node[5].veinsmobility speed ETV
vector 30 Scenario.node[7].veinsmobility posx ETV
vector 31 Scenario.node[7].veinsmobility posy ETV
vector 32 Scenario.node[5].veinsmobility acceleration ETV
vector 33 Scenario.node[5].veinsmobility co2emission ETV
vector 34 Scenario.node[6].veinsmobility speed ETV
vector 35 Scenario.node[8].veinsmobility posx ETV
vector 36 Scenario.node[8].veinsmobility posy ETV
vector 37 Scenario.node[6].veinsmobility acceleration ETV
vector 38 Scenario.node[6].veinsmobility co2emission ETV
vector 39 Scenario.node[7].veinsmobility speed ETV
vector 40 Scenario.node[9].veinsmobility posx ETV
vector 41 Scenario.node[9].veinsmobility posy ETV
vector 42 Scenario.node[7].veinsmobility acceleration ETV
vector 43 Scenario.node[7].veinsmobility co2emission ETV
vector 44 Scenario.node[8].veinsmobility speed ETV
vector 45 Scenario.node[10].veinsmobility posx ETV
vector 46 Scenario.node[10].veinsmobility posy ETV
vector 47 Scenario.node[8].veinsmobility acceleration ETV
vector 48 Scenario.node[8].veinsmobility co2emission ETV
vector 49 Scenario.node[9].veinsmobility speed ETV
vector 50 Scenario.node[11].veinsmobility posx ETV
vector 51 Scenario.node[11].veinsmobility posy ETV
vector 52 Scenario.node[9].veinsmobility acceleration ETV
vector 53 Scenario.node[9].veinsmobility co2emission ETV
vector 54 Scenario.node[10].veinsmobility speed ETV
vector 55 Scenario.node[12].veinsmobility posx ETV
vector 56 Scenario.node[12].veinsmobility posy ETV
vector 57 Scenario.node[10].veinsmobility acceleration ETV
vector 58 Scenario.node[10].veinsmobility co2emission ETV
vector 59 Scenario.node[11].veinsmobility speed ETV
vector 60 Scenario.node[11].veinsmobility acceleration ETV
vector 61 Scenario.node[11].veinsmobility co2emission ETV
vector 62 Scenario.node[12].veinsmobility speed ETV
vector 63 Scenario.node[13].veinsmobility posx ETV
vector 64 Scenario.node[13].veinsmobility posy ETV
vector 65 Scenario.node[12].veinsmobility acceleration ETV
vector 66 Scenario.node[12].veinsmobility co2emission ETV
8	575	3	4.0322527122872
8	1386	4	5.2975898300737
8	2707	5	6.2393095735349
8	4658	6	8.1168280262473
8	7359	7	8.4055474696849
8	10930	8	2.0020744113745
8	15491	9	2.1255678657952
8	21162	10	2.0833077609135
8	28063	11	0.973
8	36314	12	5.0233975027743
8	46035	13	2.1824311942096
8	57346	14	1.9663164757387
8	68657	15	1.7908425375131
7	575	3	1.9318974897382
7	1386	4	2.0363803824014
7	2707	5	1.9676209085644
7	4658	6	2.1980462150532
7	7359	7	1.9237625535764
7	10930	8	-0.0042241375669114
7	15491	9	0.031926844704429
7	21162	10	0.018636053211521
7	28063	11	-0.92032115425904
7	36314	12	0.90263453762502
7	46035	13	0.047377850932534
7	57346	14	-0.016847176784649
7	68657	15	-0.067736297186929
4	154	2	3.722822103166
4	575	3	5.6547195929041
4	1386	4	7.6910999753055
4	2707	5	9.65872088387
4	4658	6	11.856767098923
4	7359	7	13.7805296525
4	10930	8	13.776305514933
4	15491	9	13.808232359637
4	21162	10	13.826868412849
4	28063	11	12.90654725859
4	36314	12	13.809181796215
4	46035	13	13.856559647147
4	57346	14	13.839712470362
4	68657	15	13.771976173175
1	3	1	218.97527168986
1	154	2	218.97527168986
1	575	3	221.91701602909
1	1386	4	226.73392477214
1	2707	5	233.50966306902
1	4658	6	242.25464107124
1	7359	7	253.08907103399
1	10930	8	265.85694795044
1	15491	9	279.58583758576
1	21162	10	293.34369816655
1	28063	11	307.10490342091
1	36314	12	320.70884819878
1	46035	13	334.0227188813
1	57346	14	347.78811221397
1	68657	15	361.56537455714
0	3	1	453.13253704666
0	154	2	453.13253704666
0	575	3	452.81040122327
0	1386	4	452.28292545202
0	2707	5	451.54094797755
0	4658	6	450.58437605168
0	7359	7	449.39968502533
0	10930	8	448.0035811915
0	15491	9	446.58835285802
0	21162	10	445.34277481021
0	28063	11	444.120372666
0	36314	12	442.91375441878
0	46035	13	441.73306110271
0	57346	14	440.51232610471
0	68657	15	439.30048473788
vector 67 Scenario.node[14].veinsmobility posx ETV
vector 68 Scenario.node[14].veinsmobility posy ETV
vector 69 Scenario.node[13].veinsmobility speed ETV
vector 70 Scenario.node[15].veinsmobility posx ETV
vector 71 Scenario.node[15].veinsmobility posy ETV
vector 72 Scenario.node[13].veinsmobility acceleration ETV
vector 73 Scenario.node[13].veinsmobility co2emission ETV
vector 74 Scenario.node[14].veinsmobility speed ETV
vector 75 Scenario.node[16].veinsmobility posx ETV
vector 76 Scenario.node[16].veinsmobility posy ETV
vector 77 Scenario.node[14].veinsmobility acceleration ETV
vector 78 Scenario.node[14].veinsmobility co2emission ETV
vector 79 Scenario.node[15].veinsmobility speed ETV
vector 80 Scenario.node[17].veinsmobility posx ETV
vector 81 Scenario.node[17].veinsmobility posy ETV
vector 82 Scenario.node[15].veinsmobility acceleration ETV
vector 83 Scenario.node[15].veinsmobility co2emission ETV
vector 84 Scenario.node[16].veinsmobility speed ETV
vector 85 Scenario.node[18].veinsmobility posx ETV
vector 86 Scenario.node[18].veinsmobility posy ETV
vector 87 Scenario.node[16].veinsmobility acceleration ETV
vector 88 Scenario.node[16].veinsmobility co2emission ETV
vector 89 Scenario.node[17].veinsmobility speed ETV
vector 90 Scenario.node[19].veinsmobility posx ETV
vector 91 Scenario.node[19].veinsmobility posy ETV
vector 92 Scenario.node[17].veinsmobility acceleration ETV
vector 93 Scenario.node[17].veinsmobility co2emission ETV
vector 94 Scenario.node[18].veinsmobility speed ETV
vector 95 Scenario.node[20].veinsmobility posx ETV
vector 96 Scenario.node[20].veinsmobility posy ETV
vector 97 Scenario.node[18].veinsmobility acceleration ETV
vector 98 Scenario.node[18].veinsmobility co2emission ETV
vector 99 Scenario.node[19].veinsmobility speed ETV
98	189654	22	4.6703444778665
97	189654	22	2.1170343474159
94	166283	21	4.2163985864224
94	189654	22	6.3334329338383
86	145222	20	400.15486878488
86	166283	21	400.15486878488
86	189654	22	400.5702538188
85	145222	20	270.74726206821
85	166283	21	270.74726206821
85	189654	22	273.94926598435
vector 100 Scenario.node[21].veinsmobility posx ETV
vector 101 Scenario.node[21].veinsmobility posy ETV
vector 102 Scenario.node[19].veinsmobility acceleration ETV
vector 103 Scenario.node[19].veinsmobility co2emission ETV
vector 104 Scenario.node[20].veinsmobility speed ETV
vector 105 Scenario.node[22].veinsmobility posx ETV
vector 106 Scenario.node[22].veinsmobility posy ETV
vector 107 Scenario.node[20].veinsmobility acceleration ETV
vector 108 Scenario.node[20].veinsmobility co2emission ETV
vector 109 Scenario.node[21].veinsmobility speed ETV
43	21162	10	4.4635109460337
43	28063	11	4.5687324623529
43	36314	12	6.5666160946407
43	46035	13	8.2265129748267
43	57346	14	7.7148636372985
43	68657	15	2.3125374364163
43	81678	16	1.9085448820424
43	94699	17	2.0869984362394
43	109550	18	1.9970401228522
43	126351	19	1.8608164987327
43	145222	20	0.973
43	166283	21	0.973
43	189654	22	0.973
43	215455	23	0.973
43	241256	24	2.1557016440173
42	21162	10	2.033667183409
42	28063	11	1.6154894423066
42	36314	12	2.0583128842129
42	46035	13	2.1934875023947
42	57346	14	1.7169912980609
42	68657	15	0.08624713111436
42	81678	16	-0.033765339860693
42	94699	17	0.019184053845239
42	109550	18	-0.00755243435502
42	126351	19	-0.047134080159013
42	145222	20	-0.76337186202803
42	166283	21	-3.228847070877
42	189654	22	-3.0746029461018
42	215455	23	-2.5592743628831
42	241256	24	0.68559369576837
39	15491	9	4.1548589008236
39	21162	10	6.1885260842325
39	28063	11	7.8040155265391
39	36314	12	9.862328410752
39	46035	13	12.055815913147
39	57346	14	13.772807211208
39	68657	15	13.859054342322
39	81678	16	13.825289002461
39	94699	17	13.844473056307
39	109550	18	13.836920621952
39	126351	19	13.789786541793
39	145222	20	13.026414679765
39	166283	21	9.7975676088875
39	189654	22	6.7229646627857
39	215455	23	4.1636902999026
39	241256	24	4.849283995671
31	10930	8	218.9881887397
31	15491	9	218.9881887397
31	21162	10	222.18305120075
31	28063	11	227.42902302448
31	36314	12	234.42529014966
31	46035	13	243.29519741985
31	57346	14	254.29009392516
31	68657	15	267.25487014585
31	81678	16	281.00153015726
31	94699	17	294.77368247335
31	109550	18	308.56790114213
31	126351	19	322.33272591167
31	145222	20	336.10998164638
31	166283	21	349.76296283918
31	189654	22	360.91053782658
31	215455	23	368.94132280995
31	241256	24	374.20030279412
30	10930	8	453.13112256464
30	15491	9	453.13112256464
30	21162	10	452.78126903189
30	28063	11	452.20680869202
30	36314	12	451.44068219999
30	46035	13	450.47059639065
30	57346	14	449.26835914603
30	68657	15	447.85072535265
30	81678	16	446.45002995472
30	94699	17	445.21574989848
30	109550	18	443.99043117059
30	126351	19	442.7697465936
30	145222	20	441.54795962062
30	166283	21	440.33719349384
30	189654	22	439.35844580443
30	215455	23	438.64681700208
30	241256	24	438.17984626352
vector 110 Scenario.node[23].veinsmobility posx ETV
vector 111 Scenario.node[23].veinsmobility posy ETV
vector 112 Scenario.node[24].veinsmobility posx ETV
vector 113 Scenario.node[24].veinsmobility posy ETV
vector 114 Scenario.node[21].veinsmobility acceleration ETV
vector 115 Scenario.node[21].veinsmobility co2emission ETV
vector 116 Scenario.node[22].veinsmobility speed ETV
vector 117 Scenario.node[25].veinsmobility posx ETV
vector 118 Scenario.node[25].veinsmobility posy ETV
vector 119 Scenario.node[22].veinsmobility acceleration ETV
vector 120 Scenario.node[22].veinsmobility co2emission ETV
vector 121 Scenario.node[23].veinsmobility speed ETV
vector 122 Scenario.node[24].veinsmobility speed ETV
vector 123 Scenario.node[26].veinsmobility posx ETV
vector 124 Scenario.node[26].veinsmobility posy ETV
vector 125 Scenario.node[23].veinsmobility acceleration ETV
vector 126 Scenario.node[23].veinsmobility co2emission ETV
vector 127 Scenario.node[24].veinsmobility acceleration ETV
vector 128 Scenario.node[24].veinsmobility co2emission ETV
vector 129 Scenario.node[25].veinsmobility speed ETV
vector 130 Scenario.node[25].veinsmobility acceleration ETV
vector 131 Scenario.node[25].veinsmobility co2emission ETV
vector 132 Scenario.node[26].veinsmobility speed ETV
vector 133 Scenario.node[27].veinsmobility posx ETV
vector 134 Scenario.node[27].veinsmobility posy ETV
vector 135 Scenario.node[26].veinsmobility acceleration ETV
vector 136 Scenario.node[26].veinsmobility co2emission ETV
vector 137 Scenario.node[28].veinsmobility posx ETV
vector 138 Scenario.node[28].veinsmobility posy ETV
vector 139 Scenario.node[27].veinsmobility speed ETV
vector 140 Scenario.node[29].veinsmobility posx ETV
vector 141 Scenario.node[29].veinsmobility posy ETV
vector 142 Scenario.node[27].veinsmobility acceleration ETV
vector 143 Scenario.node[27].veinsmobility co2emission ETV
vector 144 Scenario.node[28].veinsmobility speed ETV
13	1386	4	4.3963491482435
13	2707	5	5.2243668643481
13	4658	6	2.4203173719007
13	7359	7	1.5785154163666
13	10930	8	1.5409901461813
13	15491	9	1.3708117405831
13	21162	10	1.5361059688399
13	28063	11	1.7506495669272
13	36314	12	1.4790818457454
13	46035	13	1.4513399526781
13	57346	14	1.6837079377413
13	68657	15	1.5374315240842
13	81678	16	1.4896987690158
13	94699	17	1.5403792229024
13	109550	18	1.7962852780137
13	126351	19	1.3635348301872
13	145222	20	1.5596479157737
13	166283	21	1.2567367609669
13	189654	22	0.973
13	215455	23	0.973
13	241256	24	0.973
13	269607	25	0.973
13	300768	26	0.973
13	334579	27	0.973
13	371300	28	2.4599127193776
13	408173	29	3.4452099881408
13	447924	30	4.9317822327297
13	490825	31	4.9781435128518
12	1386	4	2.0812686025072
12	2707	5	1.9415802837908
12	4658	6	0.42755403313306
12	7359	7	0.0070288239652285
12	10930	8	-0.011325129580218
12	15491	9	-0.09424151220359
12	21162	10	-0.010387579360977
12	28063	11	0.093887467174792
12	36314	12	-0.040772291212344
12	46035	13	-0.05326623550849
12	57346	14	0.061732128583825
12	68657	15	-0.011350017187651
12	81678	16	-0.034336363018957
12	94699	17	-0.0084693978657011
12	109550	18	0.11533847071463
12	126351	19	-0.09822768282611
12	145222	20	0.00066664988873555
12	166283	21	-0.14979680157483
12	189654	22	-2.708123988174
12	215455	23	-2.3068332410167
12	241256	24	-1.4898036285375
12	269607	25	-0.91767558966248
12	300768	26	-0.22166446533272
12	334579	27	-0.17334218804026
12	371300	28	2.1356985142976
12	408173	29	1.9978604788356
12	447924	30	2.1914225906436
12	490825	31	1.7087182020736
9	575	3	3.8605596513442
9	1386	4	5.9418282538514
9	2707	5	7.8834085376422
9	4658	6	8.3109625707753
9	7359	7	8.3179913947405
9	10930	8	8.3066662651603
9	15491	9	8.2124247529567
9	21162	10	8.2020371735957
9	28063	11	8.2959246407705
9	36314	12	8.2551523495582
9	46035	13	8.2018861140497
9	57346	14	8.2636182426335
9	68657	15	8.2522682254459
9	81678	16	8.2179318624269
9	94699	17	8.2094624645612
9	109550	18	8.3248009352759
9	126351	19	8.2265732524497
9	145222	20	8.2272399023385
9	166283	21	8.0774431007636
9	189654	22	5.3693191125897
9	215455	23	3.062485871573
9	241256	24	1.5726822430355
9	269607	25	0.65500665337298
9	300768	26	0.43334218804026
9	334579	27	0.26
9	371300	28	2.3956985142976
9	408173	29	4.3935589931332
9	447924	30	6.5849815837768
9	490825	31	8.2936997858505
3	154	2	416.02551846716
3	575	3	416.02551846716
3	1386	4	415.68183099401
3	2707	5	415.11675255987
3	4658	6	414.32324404098
3	7359	7	413.39793347777
3	10930	8	412.46939522634
3	15491	9	411.54088948388
3	21162	10	410.61349767073
3	28063	11	409.68739639054
3	36314	12	408.68982054639
3	46035	13	407.62009247787
3	57346	14	406.54967277058
3	68657	15	405.47907248414
3	81678	16	404.40815482786
3	94699	17	403.34000540235
3	109550	18	402.26675253797
3	126351	19	401.19621865775
3	145222	20	400.12625644591
3	166283	21	399.04578756014
3	189654	22	397.95956792907
3	215455	23	397.10987987555
3	241256	24	396.5853717228
3	269607	25	396.30312628912
3	300768	26	396.17404810208
3	334579	27	396.11308627445
3	371300	28	396.08969098273
3	408173	29	396.71298079905
3	447924	30	399.37096435432
3	490825	31	400.09430084393
2	154	2	425.61778324533
2	575	3	425.61778324533
2	1386	4	422.57810132987
2	2707	5	417.58036696008
2	4658	6	410.56232387432
2	7359	7	402.37858136161
2	10930	8	394.16629214209
2	15491	9	385.95429044229
2	21162	10	377.75214068948
2	28063	11	369.56140482292
2	36314	12	361.364134278
2	46035	13	353.18077288142
2	57346	14	344.99212048597
2	68657	15	336.80208666984
2	81678	16	328.60962499173
2	94699	17	320.43834012811
2	109550	18	312.22801423541
2	126351	19	304.03848842327
2	145222	20	295.85333584304
2	166283	21	287.66366981229
2	189654	22	279.47400567
2	215455	23	272.95340850921
2	241256	24	268.9282767477
2	269607	25	266.76229504907
2	300768	26	265.77173521191
2	334579	27	265.30390761506
2	371300	28	265.12436963979
2	408173	29	263.76485716556
2	447924	30	264.7045189465
2	490825	31	270.28037287315
vector 145 Scenario.node[30].veinsmobility posx ETV
vector 146 Scenario.node[30].veinsmobility posy ETV
vector 147 Scenario.node[31].veinsmobility posx ETV
vector 148 Scenario.node[31].veinsmobility posy ETV
vector 149 Scenario.node[28].veinsmobility acceleration ETV
vector 150 Scenario.node[28].veinsmobility co2emission ETV
vector 151 Scenario.node[29].veinsmobility speed ETV
vector 152 Scenario.node[32].veinsmobility posx ETV
vector 153 Scenario.node[32].veinsmobility posy ETV
vector 154 Scenario.node[29].veinsmobility acceleration ETV
vector 155 Scenario.node[29].veinsmobility co2emission ETV
vector 156 Scenario.node[30].veinsmobility speed ETV
vector 157 Scenario.node[31].veinsmobility speed ETV
vector 158 Scenario.node[33].veinsmobility posx ETV
vector 159 Scenario.node[33].veinsmobility posy ETV
vector 160 Scenario.node[30].veinsmobility acceleration ETV
vector 161 Scenario.node[30].veinsmobility co2emission ETV
vector 162 Scenario.node[31].veinsmobility acceleration ETV
vector 163 Scenario.node[31].veinsmobility co2emission ETV
vector 164 Scenario.node[32].veinsmobility speed ETV
vector 165 Scenario.node[34].veinsmobility posx ETV
vector 166 Scenario.node[34].veinsmobility posy ETV
vector 167 Scenario.node[32].veinsmobility acceleration ETV
vector 168 Scenario.node[32].veinsmobility co2emission ETV
vector 169 Scenario.node[33].veinsmobility speed ETV
53	36314	12	4.5838807412807
53	46035	13	5.5556524985756
53	57346	14	7.1083569644389
53	68657	15	7.3073566139396
53	81678	16	7.0166470968542
53	94699	17	1.7435798079972
53	109550	18	2.2548773167307
53	126351	19	1.8783290583965
53	145222	20	2.142293940567
53	166283	21	2.1474029025149
53	189654	22	1.929362178043
53	215455	23	0.973
53	241256	24	0.973
53	269607	25	0.973
53	300768	26	0.973
53	334579	27	4.9070142673367
53	371300	28	5.1534415218593
53	408173	29	2.6633945877227
53	447924	30	1.5184485095496
53	490825	31	1.4304330595343
53	536996	32	1.523546801726
53	586733	33	1.7177605293973
53	639804	34	1.3835789759369
53	696505	35	1.5649425971675
52	36314	12	2.0054053718317
52	46035	13	1.956864378131
52	57346	14	2.1142486377759
52	68657	15	1.8186379640712
52	81678	16	1.49302940503
52	94699	17	-0.082377220785711
52	109550	18	0.069040580017028
52	126351	19	-0.0425504567381
52	145222	20	0.035559662405868
52	166283	21	0.035904903325717
52	189654	22	-0.028442754007409
52	215455	23	-2.1012881867289
52	241256	24	-3.175986707778
52	269607	25	-2.8374728635319
52	300768	26	-2.4057929191153
52	334579	27	2.4903244146286
52	371300	28	1.9373872359493
52	408173	29	0.54863842431562
52	447924	30	-0.022118935792241
52	490825	31	-0.064499033603351
52	536996	32	-0.016997812821064
52	586733	33	0.077782847085036
52	639804	34	-0.087512075039559
52	696505	35	0.0041161738522355
49	28063	11	4.48259911587
49	36314	12	6.4880044877017
49	46035	13	8.4448688658327
49	57346	14	10.559117503609
49	68657	15	12.37775546768
49	81678	16	13.87078487271
49	94699	17	13.788407651924
49	109550	18	13.857448231941
49	126351	19	13.814897775203
49	145222	20	13.850457437609
49	166283	21	13.886362340935
49	189654	22	13.857919586927
49	215455	23	11.756631400198
49	241256	24	8.5806446924203
49	269607	25	5.7431718288884
49	300768	26	3.3373789097731
49	334579	27	5.8277033244016
49	371300	28	7.7650905603509
49	408173	29	8.3137289846665
49	447924	30	8.2916100488743
49	490825	31	8.2271110152709
49	536996	32	8.2101132024499
49	586733	33	8.2878960495349
49	639804	34	8.2003839744953
49	696505	35	8.2045001483476
41	21162	10	378.56052333354
41	28063	11	378.56052333354
41	36314	12	377.86488153161
41	46035	13	372.5698162733
41	57346	14	365.03075405011
41	68657	15	355.50707471668
41	81678	16	343.9434693379
41	94699	17	330.620573868
41	109550	18	316.85277368319
41	126351	19	303.07921406539
41	145222	20	289.30593632566
41	166283	21	275.86914114528
41	189654	22	262.1416587
41	215455	23	248.37929164461
41	241256	24	235.40529338445
41	269607	25	225.54713757289
41	300768	26	218.66953814395
41	334579	27	214.36053169747
41	371300	28	210.38149896872
41	408173	29	209.62572416444
41	447924	30	209.64587061541
41	490825	31	209.66607928995
41	536996	32	209.68624719658
41	586733	33	209.70645466154
41	639804	34	209.72668514971
41	696505	35	209.746872187
40	21162	10	438.4385279136
40	28063	11	438.4385279136
40	36314	12	441.13401739276
40	46035	13	444.94612625057
40	57346	14	445.61509333266
40	68657	15	446.45971006744
40	81678	16	447.48543202324
40	94699	17	448.66665000704
40	109550	18	449.88731357918
40	126351	19	451.10742270665
40	145222	20	452.3261108972
40	166283	21	450.93762197335
40	189654	22	451.72841232969
40	215455	23	453.23367122637
40	241256	24	454.65278872268
40	269607	25	455.73230644187
40	300768	26	456.4854382234
40	334579	27	456.95729613475
40	371300	28	455.31468080553
40	408173	29	448.52774346377
40	447924	30	440.28406755696
40	490825	31	432.01493054495
40	536996	32	423.76247524972
40	586733	33	415.49383318267
40	639804	34	407.21577030424
40	696505	35	398.95548698083
vector 170 Scenario.node[35].veinsmobility posx ETV
vector 171 Scenario.node[35].veinsmobility posy ETV
vector 172 Scenario.node[33].veinsmobility acceleration ETV
vector 173 Scenario.node[33].veinsmobility co2emission ETV
vector 174 Scenario.node[34].veinsmobility speed ETV
vector 175 Scenario.node[36].veinsmobility posx ETV
vector 176 Scenario.node[36].veinsmobility posy ETV
vector 177 Scenario.node[34].veinsmobility acceleration ETV
vector 178 Scenario.node[34].veinsmobility co2emission ETV
vector 179 Scenario.node[35].veinsmobility speed ETV
vector 180 Scenario.node[37].veinsmobility posx ETV
vector 181 Scenario.node[37].veinsmobility posy ETV
vector 182 Scenario.node[35].veinsmobility acceleration ETV
vector 183 Scenario.node[35].veinsmobility co2emission ETV
vector 184 Scenario.node[36].veinsmobility speed ETV
vector 185 Scenario.node[38].veinsmobility posx ETV
vector 186 Scenario.node[38].veinsmobility posy ETV
vector 187 Scenario.node[36].veinsmobility acceleration ETV
vector 188 Scenario.node[36].veinsmobility co2emission ETV
vector 189 Scenario.node[37].veinsmobility speed ETV
vector 190 Scenario.node[37].veinsmobility acceleration ETV
vector 191 Scenario.node[37].veinsmobility co2emission ETV
vector 192 Scenario.node[38].veinsmobility speed ETV
83	126351	19	3.6686406136128
83	145222	20	4.8666809987873
83	166283	21	2.8816912791078
83	189654	22	1.6413230217303
83	215455	23	1.6030997072598
83	241256	24	1.6375251694411
83	269607	25	1.549830280704
83	300768	26	1.3513334431112
83	334579	27	0.973
83	371300	28	0.973
83	408173	29	2.1070117263027
83	447924	30	5.087540434156
83	490825	31	3.7414850668037
83	536996	32	1.6610244400038
83	586733	33	1.5570995017338
83	639804	34	1.5914763098432
83	696505	35	1.446190577541
83	756956	36	1.7584281249276
83	817407	37	1.3688859586276
83	881928	38	1.6057277028386
83	949453	39	1.748277960596
83	1021469	40	1.5511412142383
82	126351	19	1.650391666037
82	145222	20	1.8444980504923
82	166283	21	0.66914559230453
82	189654	22	0.040851372494361
82	215455	23	0.020876518208535
82	241256	24	0.036737567808013
82	269607	25	-0.0068222680105823
82	300768	26	-0.10382417368237
82	334579	27	-1.2917418552762
82	371300	28	-2.5325167708552
82	408173	29	0.61857725834066
82	447924	30	2.1051694679516
82	490825	31	1.1048797212536
82	536996	32	0.050676188466605
82	586733	33	-0.0015095601743091
82	639804	34	0.015230330561753
82	696505	35	-0.056165765025652
82	756956	36	0.097142191389574
82	817407	37	-0.095264378364663
82	881928	38	0.023505959273315
82	949453	39	0.091205778061413
82	1021469	40	-0.0067779491748663
79	109550	18	4.0483372195925
79	126351	19	5.6987288856296
79	145222	20	7.5432269361218
79	166283	21	8.2123725284264
79	189654	22	8.2532239009207
79	215455	23	8.2741004191292
79	241256	24	8.3108379869373
79	269607	25	8.3040157189267
79	300768	26	8.2001915452443
79	334579	27	6.9084496899681
79	371300	28	4.3759329191129
79	408173	29	4.9945101774536
79	447924	30	7.0996796454052
79	490825	31	8.2045593666588
79	536996	32	8.2552355551254
79	586733	33	8.2537259949511
79	639804	34	8.2689563255128
79	696505	35	8.2127905604872
79	756956	36	8.3099327518768
79	817407	37	8.2146683735121
79	881928	38	8.2381743327854
79	949453	39	8.3293801108468
79	1021469	40	8.322602161672
71	94699	17	30.957367308241
71	109550	18	30.957367308241
71	126351	19	34.115110958969
71	145222	20	39.062292434644
71	166283	21	45.773328997366
71	189654	22	53.869032700424
71	215455	23	62.078938613978
71	241256	24	70.283666047313
71	269607	25	78.531878130049
71	300768	26	86.785616233446
71	334579	27	95.033793194442
71	371300	28	102.90782997443
71	408173	29	108.33394446203
71	447924	30	112.44889555916
71	490825	31	114.72130181439
71	536996	32	106.80276643431
71	586733	33	98.563206050513
71	639804	34	90.301033430781
71	696505	35	82.044176900534
71	756956	36	73.781655430658
71	817407	37	65.575741986215
71	881928	38	57.371059425473
71	949453	39	49.170315133856
71	1021469	40	40.971936045799
70	94699	17	180.74568218348
70	109550	18	180.74568218348
70	126351	19	180.35883790791
70	145222	20	179.75277578072
70	166283	21	178.93062985485
70	189654	22	177.93885313684
70	215455	23	176.9330859002
70	241256	24	175.9279530613
70	269607	25	175.35828668811
70	300768	26	175.23410808074
70	334579	27	175.11001314151
70	371300	28	174.99154719196
70	408173	29	174.90991056476
70	447924	30	174.84800056832
70	490825	31	177.87325729749
70	536996	32	178.23228324865
70	586733	33	178.35470431705
70	639804	34	178.4774613517
70	696505	35	178.60013940138
70	756956	36	178.81658951539
70	817407	37	179.82386746499
70	881928	38	180.8309943233
70	949453	39	181.83763775809
70	1021469	40	182.84399086354
vector 193 Scenario.node[39].veinsmobility posx ETV
vector 194 Scenario.node[39].veinsmobility posy ETV
vector 195 Scenario.node[38].veinsmobility acceleration ETV
vector 196 Scenario.node[38].veinsmobility co2emission ETV
18	2707	5	4.5888317941322
18	4658	6	5.3178019961181
18	7359	7	6.1173629269261
18	10930	8	4.6675945425943
18	15491	9	0.973
18	21162	10	1.5892007118027
18	28063	11	1.5658300201351
18	36314	12	1.3812084769461
18	46035	13	1.6142508089503
18	57346	14	1.6684704774599
18	68657	15	1.5703754703547
18	81678	16	1.4598672035541
18	94699	17	1.5077694994644
18	109550	18	1.7924306932349
18	126351	19	1.3844320343946
18	145222	20	1.4833749493728
18	166283	21	1.8017851326457
18	189654	22	1.5762122639157
18	215455	23	1.3993228057949
18	241256	24	1.721911184446
18	269607	25	1.5271846945242
18	300768	26	1.5410531136297
18	334579	27	0.973
18	371300	28	0.973
18	408173	29	1.5511278631576
18	447924	30	0.973
18	490825	31	5.1695427996837
18	536996	32	5.3693390114126
18	586733	33	1.7963431513978
18	639804	34	0.973
18	696505	35	0.973
18	756956	36	2.2560046321643
18	817407	37	4.9409044034129
18	881928	38	3.9632698858937
18	949453	39	1.4103000684433
18	1021469	40	1.574423682461
18	1093565	41	1.5632653913034
17	2707	5	2.1469366030744
17	4658	6	1.9424539956544
17	7359	7	1.8580689705699
17	10930	8	1.0944219934959
17	15491	9	-2.7276220487989
17	21162	10	0.013225392308087
17	28063	11	0.0014822860877022
17	36314	12	-0.088841152100358
17	46035	13	0.027955034000334
17	57346	14	0.053137110625393
17	68657	15	0.0038878759206273
17	81678	16	-0.050037718131206
17	94699	17	-0.025146946937312
17	109550	18	0.11321754288394
17	126351	19	-0.088020974553656
17	145222	20	-0.037118297182023
17	166283	21	0.11820899263723
17	189654	22	0.0055486337840556
17	215455	23	-0.080666666156613
17	241256	24	0.078249308464583
17	269607	25	-0.01823172824923
17	300768	26	-0.010950503048953
17	334579	27	-2.4080233457313
17	371300	28	-1.6447557255166
17	408173	29	0.20384722161457
17	447924	30	-0.65248018730558
17	490825	31	2.4725290053873
17	536996	32	1.9301110836933
17	586733	33	0.11591893879781
17	639804	34	-1.4226543375241
17	696505	35	-2.5637573329376
17	756956	36	0.73033122167587
17	817407	37	2.0250886734272
17	881928	38	1.2025673856331
17	949453	39	-0.074242794669699
17	1021469	40	0.0084077712520951
17	1093565	41	0.0026828630268572
14	1386	4	3.9658901801454
14	2707	5	6.1128267832199
14	4658	6	8.0552807788742
14	7359	7	9.9133497494441
14	10930	8	11.00777174294
14	15491	9	8.280149694141
14	21162	10	8.2933750864491
14	28063	11	8.2948573725368
14	36314	12	8.2060162204364
14	46035	13	8.2339712544368
14	57346	14	8.2871083650622
14	68657	15	8.2909962409828
14	81678	16	8.2409585228516
14	94699	17	8.2158115759143
14	109550	18	8.3290291187982
14	126351	19	8.2410081442446
14	145222	20	8.2038898470625
14	166283	21	8.3220988396998
14	189654	22	8.3276474734838
14	215455	23	8.2469808073272
14	241256	24	8.3252301157918
14	269607	25	8.3069983875426
14	300768	26	8.2960478844936
14	334579	27	5.8880245387623
14	371300	28	4.2432688132456
14	408173	29	4.4471160348602
14	447924	30	3.7946358475546
14	490825	31	6.267164852942
14	536996	32	8.1972759366353
14	586733	33	8.3131948754331
14	639804	34	6.890540537909
14	696505	35	4.3267832049714
14	756956	36	5.0571144266473
14	817407	37	7.0822031000745
14	881928	38	8.2847704857076
14	949453	39	8.2105276910379
14	1021469	40	8.21893546229
14	1093565	41	8.2216183253168
6	575	3	378.57775942317
6	1386	4	378.57775942317
6	2707	5	381.64045990161
6	4658	6	386.74710984975
6	7359	7	393.85564532207
6	10930	8	402.88247553683
6	15491	9	413.80994042244
6	21162	10	416.29300027984
6	28063	11	415.36314284854
6	36314	12	414.4344321653
6	46035	13	413.505206666
6	57346	14	412.57633020803
6	68657	15	411.64770907821
6	81678	16	410.71960567933
6	94699	17	409.7912749227
6	109550	18	408.80917251893
6	126351	19	407.7360289224
6	145222	20	406.66565106742
6	166283	21	405.59481228805
6	189654	22	404.52050235033
6	215455	23	403.44957035172
6	241256	24	402.38062733653
6	269607	25	401.30750960417
6	300768	26	400.23698799152
6	334579	27	399.15659205081
6	371300	28	398.21828333938
6	408173	29	397.59360517685
6	447924	30	397.04397074091
6	490825	31	396.53453802402
6	536996	32	395.8610904847
6	586733	33	394.89761308694
6	639804	34	393.80385004338
6	696505	35	392.76417047865
6	756956	36	392.04701540343
6	817407	37	391.49745501036
6	881928	38	390.71674701427
6	949453	39	389.83750202428
6	1021469	40	388.93396231261
6	1093565	41	388.03111950369
5	575	3	437.79673435048
5	1386	4	437.79673435048
5	2707	5	437.55830537147
5	4658	6	437.17572746106
5	7359	7	436.64317311042
5	10930	8	435.96690473952
5	15491	9	435.14824539838
5	21162	10	427.9834779308
5	28063	11	419.75952146268
5	36314	12	411.54570720108
5	46035	13	403.32733974169
5	57346	14	395.11205931535
5	68657	15	386.89903709286
5	81678	16	378.69059384834
5	94699	17	370.48013977912
5	109550	18	362.2771703602
5	126351	19	354.06768036059
5	145222	20	345.87934813295
5	166283	21	337.68748985898
5	189654	22	329.46907741283
5	215455	23	321.27650601672
5	241256	24	313.09915023529
5	269607	25	304.88985809517
5	300768	26	296.70042612927
5	334579	27	288.49740604085
5	371300	28	281.45941544819
5	408173	29	276.66556829915
5	447924	30	272.44761474834
5	490825	31	268.53817349686
5	536996	32	263.38628768369
5	586733	33	256.12284333457
5	639804	34	247.93142370616
5	696505	35	240.14504653432
5	756956	36	234.77412255372
5	817407	37	230.65835011354
5	881928	38	224.43759251995
5	949453	39	216.51476428113
5	1021469	40	208.3009925616
5	1093565	41	200.09355614754
vector 197 Scenario.node[40].veinsmobility posx ETV
vector 198 Scenario.node[40].veinsmobility posy ETV
vector 199 Scenario.node[41].veinsmobility posx ETV
vector 200 Scenario.node[41].veinsmobility posy ETV
vector 201 Scenario.node[39].veinsmobility speed ETV
vector 202 Scenario.node[39].veinsmobility acceleration ETV
vector 203 Scenario.node[39].veinsmobility co2emission ETV
vector 204 Scenario.node[40].veinsmobility speed ETV
vector 205 Scenario.node[41].veinsmobility speed ETV
vector 206 Scenario.node[42].veinsmobility posx ETV
vector 207 Scenario.node[42].veinsmobility posy ETV
vector 208 Scenario.node[43].veinsmobility posx ETV
vector 209 Scenario.node[43].veinsmobility posy ETV
vector 210 Scenario.node[40].veinsmobility acceleration ETV
vector 211 Scenario.node[40].veinsmobility co2emission ETV
vector 212 Scenario.node[41].veinsmobility acceleration ETV
vector 213 Scenario.node[41].veinsmobility co2emission ETV
vector 214 Scenario.node[44].veinsmobility posx ETV
vector 215 Scenario.node[44].veinsmobility posy ETV
vector 216 Scenario.node[42].veinsmobility speed ETV
vector 217 Scenario.node[43].veinsmobility speed ETV
vector 218 Scenario.node[45].veinsmobility posx ETV
vector 219 Scenario.node[45].veinsmobility posy ETV
vector 220 Scenario.node[42].veinsmobility acceleration ETV
vector 221 Scenario.node[42].veinsmobility co2emission ETV
vector 222 Scenario.node[43].veinsmobility acceleration ETV
vector 223 Scenario.node[43].veinsmobility co2emission ETV
vector 224 Scenario.node[44].veinsmobility speed ETV
vector 225 Scenario.node[46].veinsmobility posx ETV
vector 226 Scenario.node[46].veinsmobility posy ETV
vector 227 Scenario.node[44].veinsmobility acceleration ETV
vector 228 Scenario.node[44].veinsmobility co2emission ETV
vector 229 Scenario.node[45].veinsmobility speed ETV
vector 230 Scenario.node[47].veinsmobility posx ETV
vector 231 Scenario.node[47].veinsmobility posy ETV
vector 232 Scenario.node[45].veinsmobility acceleration ETV
vector 233 Scenario.node[45].veinsmobility co2emission ETV
vector 234 Scenario.node[46].veinsmobility speed ETV
vector 235 Scenario.node[48].veinsmobility posx ETV
vector 236 Scenario.node[48].veinsmobility posy ETV
vector 237 Scenario.node[46].veinsmobility acceleration ETV
vector 238 Scenario.node[46].veinsmobility co2emission ETV
vector 239 Scenario.node[47].veinsmobility speed ETV
28	7359	7	4.0693960855429
28	10930	8	5.05477582258
28	15491	9	0.973
28	21162	10	0.973
28	28063	11	5.2279669701786
28	36314	12	5.4111155919395
28	46035	13	1.3410799364469
28	57346	14	0.973
28	68657	15	0.973
28	81678	16	0.973
28	94699	17	4.0639205466024
28	109550	18	4.9299308515956
28	126351	19	4.6794471619275
28	145222	20	0.973
28	166283	21	0.973
28	189654	22	3.6133038868669
28	215455	23	5.2184579069397
28	241256	24	3.1029465604325
28	269607	25	1.553969507414
28	300768	26	1.5528440874313
28	334579	27	1.6538634265668
28	371300	28	1.4949232053058
28	408173	29	1.4001648432964
28	447924	30	0.973
28	490825	31	0.973
28	536996	32	2.1607393322598
28	586733	33	4.8734403864743
28	639804	34	4.2896954522315
28	696505	35	1.464901727525
28	756956	36	1.5336387502581
28	817407	37	1.6413728866873
28	881928	38	1.6921762933395
28	949453	39	1.3674274331212
28	1021469	40	1.7485623612392
28	1093565	41	1.5496186646534
28	1165986	42	1.5657431174703
28	1241957	43	1.4546333733001
28	1318005	44	1.4467002691131
28	1402914	45	1.5453550889119
28	1492222	46	1.6940864955502
28	1586501	47	1.50648623444
28	1685501	48	1.5590740590118
28	1790127	49	1.7062924450162
27	7359	7	1.8659094530065
27	10930	8	1.8792806998873
27	15491	9	-2.521460293801
27	21162	10	-1.3195385861135
27	28063	11	2.4547131617158
27	36314	12	1.9190723514308
27	46035	13	-0.10917603805894
27	57346	14	-1.6570524543021
27	68657	15	-2.5589572361521
27	81678	16	-1.8795992736727
27	94699	17	2.4677856317861
27	109550	18	2.1408020227449
27	126351	19	1.5616928372391
27	145222	20	-2.0069089474675
27	166283	21	-2.4797768091732
27	189654	22	1.6838075826339
27	215455	23	2.0439281858155
27	241256	24	0.77046698591465
27	269607	25	-0.0042914114636368
27	300768	26	-0.0046991416951645
27	334579	27	0.044166724600364
27	371300	28	-0.034007098600268
27	408173	29	-0.079497311369051
27	447924	30	-1.4930256843378
27	490825	31	-2.5246051878035
27	536996	32	0.68373520724506
27	586733	33	2.0380582110747
27	639804	34	1.3658136389767
27	696505	35	-0.047435459562111
27	756956	36	-0.012415425574872
27	817407	37	0.0403632529499
27	881928	38	0.063243048698642
27	949453	39	-0.096413522190414
27	1021469	40	0.091548159746452
27	1093565	41	-0.0073703503981228
27	1165986	42	0.00065172822680282
27	1241957	43	-0.053325367616489
27	1318005	44	-0.055806623019743
27	1402914	45	-0.0057496467325837
27	1492222	46	0.066678470748011
27	1586501	47	-0.026636863462628
27	1685501	48	-0.00016070855548556
27	1790127	49	0.070933872421739
24	4658	6	4.0393522846261
24	7359	7	5.9052617376326
24	10930	8	7.7845424375199
24	15491	9	5.2630821437189
24	21162	10	3.9435435576054
24	28063	11	6.3982567193212
24	36314	12	8.317329070752
24	46035	13	8.2081530326931
24	57346	14	6.551100578391
24	68657	15	3.9921433422389
24	81678	16	2.1125440685662
24	94699	17	4.5803297003523
24	109550	18	6.7211317230972
24	126351	19	8.2828245603363
24	145222	20	6.2759156128688
24	166283	21	3.7961388036957
24	189654	22	5.4799463863296
24	215455	23	7.523874572145
24	241256	24	8.2943415580597
24	269607	25	8.290050146596
24	300768	26	8.2853510049009
24	334579	27	8.3295177295012
24	371300	28	8.295510630901
24	408173	29	8.2160133195319
24	447924	30	6.7229876351941
24	490825	31	4.1983824473906
24	536996	32	4.8821176546357
24	586733	33	6.9201758657103
24	639804	34	8.285989504687
24	696505	35	8.2385540451249
24	756956	36	8.22613861955
24	817407	37	8.2665018724999
24	881928	38	8.3297449211986
24	949453	39	8.2333313990082
24	1021469	40	8.3248795587546
24	1093565	41	8.3175092083565
24	1165986	42	8.3181609365833
24	1241957	43	8.2648355689668
24	1318005	44	8.2090289459471
24	1402914	45	8.2032792992145
24	1492222	46	8.2699577699625
24	1586501	47	8.2433209064999
24	1685501	48	8.2431601979444
24	1790127	49	8.3140940703661
16	2707	5	120.92280831771
16	4658	6	120.92280831771
16	7359	7	120.98045579993
16	10930	8	121.07420267381
16	15491	9	121.20161423102
16	21162	10	121.32067019979
16	28063	11	121.39657845777
16	36314	12	118.54703891783
16	46035	13	117.99791872431
16	57346	14	117.84590440882
16	68657	15	117.70476314097
16	81678	16	117.61067066888
16	94699	17	117.55658974138
16	109550	18	117.62674157862
16	126351	19	120.27742327914
16	145222	20	127.83190517649
16	166283	21	135.2712998066
16	189654	22	140.10677699488
16	215455	23	144.4484615977
16	241256	24	151.10179934517
16	269607	25	159.27427801561
16	300768	26	167.54429024325
16	334579	27	175.80615140962
16	371300	28	184.05204320016
16	408173	29	192.302793627
16	447924	30	200.55066259734
16	490825	31	208.30392392638
16	536996	32	213.5859162569
16	586733	33	217.57579186285
16	639804	34	222.86020260167
16	696505	35	223.74540837301
16	756956	36	224.50330039819
16	817407	37	225.26235959649
16	881928	38	226.02209765752
16	949453	39	226.78151693931
16	1021469	40	227.54150101147
16	1093565	41	228.30092377169
16	1165986	42	229.06133716299
16	1241957	43	229.82242750171
16	1318005	44	230.5810827326
16	1402914	45	231.34130711917
16	1492222	46	232.09927138406
16	1586501	47	232.85835840176
16	1685501	48	233.61812676717
16	1790127	49	234.37658649234
15	2707	5	187.34973139021
15	4658	6	187.34973139021
15	7359	7	190.48726648792
15	10930	8	195.58955536134
15	15491	9	202.52408601592
15	21162	10	209.00385349689
15	28063	11	213.13525376707
15	36314	12	215.08292644676
15	46035	13	207.82557647064
15	57346	14	199.55201044702
15	68657	15	191.87022340995
15	81678	16	186.74912492942
15	94699	17	183.80570395735
15	109550	18	180.28799730924
15	126351	19	175.55173708494
15	145222	20	174.82363711359
15	166283	21	174.89217700851
15	189654	22	174.93829459158
15	215455	23	174.98920102096
15	241256	24	175.1611857644
15	269607	25	175.48546980419
15	300768	26	175.81806116988
15	334579	27	176.150324728
15	371300	28	176.48194605291
15	408173	29	176.81376277541
15	447924	30	177.14546361567
15	490825	31	177.45727304267
15	536996	32	177.6696965548
15	586733	33	177.81154977397
15	639804	34	175.92510769948
15	696505	35	168.0805013877
15	756956	36	159.86295771425
15	817407	37	151.63275881305
15	881928	38	143.39519925376
15	949453	39	135.16109610013
15	1021469	40	126.92086913293
15	1093565	41	118.68672826398
15	1165986	42	110.4418463477
15	1241957	43	102.18962454014
15	1318005	44	93.963805708665
15	1402914	45	85.720973100847
15	1492222	46	77.502646158846
15	1586501	47	69.272145622254
15	1685501	48	61.03425748365
15	1790127	49	52.81055844858
vector 240 Scenario.node[47].veinsmobility acceleration ETV
vector 241 Scenario.node[47].veinsmobility co2emission ETV
vector 242 Scenario.node[48].veinsmobility speed ETV
vector 243 Scenario.node[49].veinsmobility posx ETV
vector 244 Scenario.node[49].veinsmobility posy ETV
vector 245 Scenario.node[48].veinsmobility acceleration ETV
vector 246 Scenario.node[48].veinsmobility co2emission ETV
vector 247 Scenario.node[49].veinsmobility speed ETV
vector 248 Scenario.node[49].veinsmobility acceleration ETV
vector 249 Scenario.node[49].veinsmobility co2emission ETV
168	696505	35	4.6093979857402
168	756956	36	5.7261425357407
168	817407	37	1.4233259107317
168	881928	38	1.5251125318333
168	949453	39	1.5230901895967
168	1021469	40	0.973
168	1093565	41	0.973
168	1165986	42	2.0029409412424
168	1241957	43	5.1036755585647
168	1318005	44	4.0412157698206
168	1402914	45	1.7038862435359
168	1492222	46	1.5149911842958
168	1586501	47	1.5323681566054
168	1685501	48	0.973
168	1790127	49	0.973
168	1899057	50	0.973
168	2003552	51	0.973
168	2112536	52	2.3575374362849
168	2221780	53	3.3578012516039
168	2330759	54	4.5494700657577
168	2439746	55	5.992385400844
168	2548994	56	6.6992795528055
168	2657977	57	0.973
168	2767219	58	0.973
168	2876205	59	0.973
168	2985596	60	4.2814794700055
168	3094587	61	5.704167102012
167	696505	35	2.1077320560603
167	756956	36	2.0740468580197
167	817407	37	-0.068824952263386
167	881928	38	-0.017127535103354
167	949453	39	-0.017589938757011
167	1021469	40	-1.3969896733096
167	1093565	41	-2.5329425639469
167	1165986	42	0.55527301417864
167	1241957	43	2.1495953488746
167	1318005	44	1.2488784426904
167	1402914	45	0.069693928307389
167	1492222	46	-0.023836077158339
167	1586501	47	-0.0146717778733
167	1685501	48	-1.4175255670146
167	1790127	49	-2.3134126571408
167	1899057	50	-1.7250618164203
167	2003552	51	-0.28468653687621
167	2112536	52	1.18554504583
167	2221780	53	1.5563809695921
167	2330759	54	1.7977081004155
167	2439746	55	2.0004230260348
167	2548994	56	1.8722446021927
167	2657977	57	-1.2210061338171
167	2767219	58	-4.5
167	2876205	59	-0.67622827960178
167	2985596	60	1.842490472144
167	3094587	61	2.0344961864641
164	639804	34	4.143278715793
164	696505	35	6.2510107718534
164	756956	36	8.325057629873
164	817407	37	8.2562326776097
164	881928	38	8.2391051425063
164	949453	39	8.2215152037493
164	1021469	40	6.8245255304396
164	1093565	41	4.2915829664927
164	1165986	42	4.8468559806713
164	1241957	43	6.9964513295459
164	1318005	44	8.2453297722363
164	1402914	45	8.3150237005437
164	1492222	46	8.2911876233853
164	1586501	47	8.276515845512
164	1685501	48	6.8589902784974
164	1790127	49	4.5455776213566
164	1899057	50	2.8205158049363
164	2003552	51	2.5358292680601
164	2112536	52	3.7213743138901
164	2221780	53	5.2777552834822
164	2330759	54	7.0754633838977
164	2439746	55	9.0758864099324
164	2548994	56	10.948131012125
164	2657977	57	9.727124878308
164	2767219	58	5.227124878308
164	2876205	59	4.5508965987062
164	2985596	60	6.3933870708502
164	3094587	61	8.4278832573143
153	586733	33	416.02633106227
153	639804	34	416.02633106227
153	696505	35	415.66333970609
153	756956	36	415.06954510408
153	817407	37	414.23436074344
153	881928	38	413.30745441916
153	949453	39	412.37877443635
153	1021469	40	411.44927317557
153	1093565	41	410.57132228581
153	1165986	42	409.97279629795
153	1241957	43	409.87202562483
153	1318005	44	413.08665945836
153	1402914	45	413.9750779069
153	1492222	46	414.90219477682
153	1586501	47	415.83156048548
153	1685501	48	416.76006307114
153	1790127	49	417.62875070177
153	1899057	50	418.25231012251
153	2003552	51	418.65097667672
153	2112536	52	418.92446683627
153	2221780	53	419.27176631518
153	2330759	54	419.78848577763
153	2439746	55	419.26588556395
153	2548994	56	412.11361842176
153	2657977	57	402.03302757778
153	2767219	58	390.95597856893
153	2876205	59	383.72335447458
153	2985596	60	379.95659005764
153	3094587	61	375.08719269855
152	586733	33	425.62497009631
152	639804	34	425.62497009631
152	696505	35	422.41455846645
152	756956	36	417.16284912532
152	817407	37	409.77621156821
152	881928	38	401.57835563421
152	949453	39	393.36481289712
152	1021469	40	385.14400651489
152	1093565	41	377.37912809859
152	1165986	42	372.08557286797
152	1241957	43	368.15253849299
152	1318005	44	370.24620553214
152	1402914	45	378.10366238558
152	1492222	46	386.30338045246
152	1586501	47	394.52298796838
152	1685501	48	402.73496174839
152	1790127	49	410.41791293877
152	1899057	50	415.93287185494
152	2003552	51	419.45880634416
152	2112536	52	421.8776407707
152	2221780	53	424.94926842008
152	2330759	54	429.51930058029
152	2439746	55	435.65840489314
152	2548994	56	438.58401300017
152	2657977	57	439.3390003312
152	2767219	58	440.16861754277
152	2876205	59	440.71030598603
152	2985596	60	442.03184909982
152	3094587	61	444.72259599717
213	1318005	44	4.6083247778578
213	1402914	45	5.6622193059672
213	1492222	46	1.7288823644008
213	1586501	47	1.4105078123104
213	1685501	48	1.5995732323145
213	1790127	49	1.4814629401957
213	1899057	50	1.7794416561651
213	2003552	51	1.4152424066039
213	2112536	52	1.5539378264419
213	2221780	53	1.6458596508197
213	2330759	54	1.55298650805
213	2439746	55	1.6242210350146
213	2548994	56	0.973
213	2657977	57	0.973
213	2767219	58	0.973
213	2876205	59	0.973
213	2985596	60	0.973
213	3094587	61	2.4268127651561
213	3203577	62	3.178567914135
213	3307708	63	4.374816623472
213	3411432	64	5.1981093795788
213	3515304	65	1.787232175236
213	3619126	66	1.7342483305317
213	3723198	67	1.5353175362453
212	1318005	44	2.1483866246417
212	1402914	45	2.0730096350191
212	1492222	46	0.082873645612368
212	1586501	47	-0.074479928854853
212	1685501	48	0.020176265228073
212	1790127	49	-0.038157475425395
212	1899057	50	0.10745399554959
212	2003552	51	-0.072515122890472
212	2112536	52	-0.0025970812304887
212	2221780	53	0.042061648475938
212	2330759	54	-0.0043321285606357
212	2439746	55	0.030250080798286
212	2548994	56	-2.0394580450793
212	2657977	57	-2.5220131739871
212	2767219	58	-1.7761186529312
212	2876205	59	-1.06465019238
212	2985596	60	-0.47570497869625
212	3094587	61	2.024640946197
212	3203577	62	1.8073723373818
212	3307708	63	1.9619968309836
212	3411432	64	1.8706462170486
212	3515304	65	0.11628899755629
212	3619126	66	0.085707564896438
212	3723198	67	-0.013369785784743
205	1241957	43	3.9945522083958
205	1318005	44	6.1429388330375
205	1402914	45	8.2159484680566
205	1492222	46	8.298822113669
205	1586501	47	8.2243421848142
205	1685501	48	8.2445184500422
205	1790127	49	8.2063609746168
205	1899057	50	8.3138149701664
205	2003552	51	8.241299847276
205	2112536	52	8.2387027660455
205	2221780	53	8.2807644145214
205	2330759	54	8.2764322859608
205	2439746	55	8.3066823667591
205	2548994	56	6.2672243216798
205	2657977	57	3.7452111476927
205	2767219	58	1.9690924947614
205	2876205	59	0.90444230238145
205	2985596	60	0.4287373236852
205	3094587	61	2.4533782698822
205	3203577	62	4.260750607264
205	3307708	63	6.2227474382476
205	3411432	64	8.0933936552962
205	3515304	65	8.2096826528525
205	3619126	66	8.2953902177489
205	3723198	67	8.2820204319642
200	1165986	42	210.03583429474
200	1241957	43	210.03583429474
200	1318005	44	210.03881977325
200	1402914	45	210.04372721961
200	1492222	46	210.13359456096
200	1586501	47	211.12480355579
200	1685501	48	212.11073305536
200	1790127	49	213.09806137505
200	1899057	50	214.08590370095
200	2003552	51	215.07752803763
200	2112536	52	216.06656752661
200	2221780	53	217.05333533669
200	2330759	54	218.04267688441
200	2439746	55	219.03031130391
200	2548994	56	220.01777221873
200	2657977	57	220.90594747753
200	2767219	58	221.48748645328
200	2876205	59	221.8146041838
200	2985596	60	221.97357273314
200	3094587	61	222.04136992949
200	3203577	62	222.32768700011
200	3307708	63	223.83560435199
200	3411432	64	228.90744266628
200	3515304	65	236.08108817827
200	3619126	66	244.32975328444
200	3723198	67	252.58055301255
199	1165986	42	299.40065334067
199	1241957	43	299.40065334067
199	1318005	44	296.25395899857
199	1402914	45	291.08151052747
199	1492222	46	283.775762446
199	1586501	47	275.54395286183
199	1685501	48	267.35598852118
199	1790127	49	259.15640723496
199	1899057	50	250.95255722111
199	2003552	51	242.71729829879
199	2112536	52	234.50350606434
199	2221780	53	226.30857970799
199	2330759	54	218.0922789309
199	2439746	55	209.89015554167
199	2548994	56	201.68947307718
199	2657977	57	194.31333984399
199	2767219	58	189.48376491169
199	2876205	59	186.76711193202
199	2985596	60	185.44690717722
199	3094587	61	184.8838638497
199	3203577	62	183.39776557395
199	3307708	63	180.38727285093
199	3411432	64	179.29612399086
199	3515304	65	178.9386743004
199	3619126	66	178.5276583415
199	3723198	67	178.11653601827
78	109550	18	4.0456376590554
78	126351	19	5.4034604181237
78	145222	20	5.9890804086087
78	166283	21	7.7806116884061
78	189654	22	6.0989941207853
78	215455	23	0.973
78	241256	24	0.973
78	269607	25	0.973
78	300768	26	2.148817218607
78	334579	27	5.2108509460871
78	371300	28	3.8505721018485
78	408173	29	1.6753572033174
78	447924	30	1.3662660063131
78	490825	31	1.7451414374992
78	536996	32	1.5562658468992
78	586733	33	1.3863248690569
78	639804	34	1.6914265868813
78	696505	35	1.5774018434012
78	756956	36	1.5406977587054
78	817407	37	1.5797019818307
78	881928	38	1.4159499044278
78	949453	39	1.7025415681312
78	1021469	40	1.4822984917855
78	1093565	41	1.7448629490232
78	1165986	42	1.3737956153792
78	1241957	43	1.733501962975
78	1318005	44	1.5548579624389
78	1402914	45	1.5422443267529
78	1492222	46	0.973
78	1586501	47	0.973
78	1685501	48	1.6899461061592
78	1790127	49	5.0534092278888
78	1899057	50	4.2340507738942
78	2003552	51	1.5158457047308
78	2112536	52	0.973
78	2221780	53	0.973
78	2330759	54	4.3560695839949
78	2439746	55	5.0116759795566
78	2548994	56	2.9199100922388
78	2657977	57	1.3889599719686
78	2767219	58	0.973
78	2876205	59	0.973
78	2985596	60	4.9964728954406
78	3094587	61	5.6414362252661
78	3203577	62	2.1390183510578
78	3307708	63	1.5348265757265
78	3411432	64	1.5882283258693
78	3515304	65	1.6497142411621
78	3619126	66	1.6230840730117
78	3723198	67	1.5006859382745
78	3827214	68	1.5364544061582
78	3925984	69	1.4989308882992
78	4024983	70	1.5911779322466
78	4123732	71	1.4539654157621
78	4222591	72	1.717881421975
78	4321770	73	1.5697786403586
78	4421307	74	1.5094009479263
78	4520490	75	1.5515305440332
78	4619777	76	1.6698202638043
77	109550	18	1.8245227678539
77	126351	19	2.0070662350883
77	145222	20	1.8267418373213
77	166283	21	2.0747086386289
77	189654	22	1.3029536304463
77	215455	23	-3.4093573563182
77	241256	24	-3.0067819260537
77	269607	25	-2.5281992966033
77	300768	26	0.66825536927093
77	334579	27	2.1800980040408
77	371300	28	1.1530927947497
77	408173	29	0.056043961392716
77	447924	30	-0.096355220000261
77	490825	31	0.091160663359334
77	536996	32	-0.0032097304635688
77	586733	33	-0.086249786978588
77	639804	34	0.065295158848167
77	696505	35	0.0078212254308152
77	756956	36	-0.010242363775614
77	817407	37	0.0090166821167799
77	881928	38	-0.071284769640769
77	949453	39	0.070620571610052
77	1021469	40	-0.038668785209302
77	1093565	41	0.089567595603876
77	1165986	42	-0.093235392863862
77	1241957	43	0.084297810189891
77	1318005	44	-0.0046527565247381
77	1402914	45	-0.010604689216708
77	1492222	46	-1.1442947251051
77	1586501	47	-2.6389565219294
77	1685501	48	0.29108758227062
77	1790127	49	2.1363640557928
77	1899057	50	1.3379609724788
77	2003552	51	-0.022548382182141
77	2112536	52	-2.2501273542331
77	2221780	53	-2.3951211141221
77	2330759	54	2.1302802330234
77	2439746	55	1.895423344525
77	2548994	56	0.67596737449272
77	2657977	57	-0.085582411293872
77	2767219	58	-2.6711184877191
77	2876205	59	-2.3315236170918
77	2985596	60	2.5677077539009
77	3094587	61	2.1430495837983
77	3203577	62	0.29235369693612
77	3307708	63	-0.011713785927277
77	3411432	64	0.014709449708462
77	3515304	65	0.043958959348965
77	3619126	66	0.029515682051425
77	3723198	67	-0.030674432935195
77	3827214	68	-0.01235309456475
77	3925984	69	-0.030275458050891
77	4024983	70	0.015631223134696
77	4123732	71	-0.05192890694132
77	4222591	72	0.078194527470041
77	4321770	73	0.0038419021223675
77	4421307	74	-0.025619090041147
77	4520490	75	-0.0043072249111713
77	4619777	76	0.053027505837381
74	94699	17	4.1513430300749
74	109550	18	5.9758657979289
74	126351	19	7.9829320330171
74	145222	20	9.8096738703384
74	166283	21	11.884382508967
74	189654	22	13.187336139414
74	215455	23	9.7779787830956
74	241256	24	6.7711968570419
74	269607	25	4.2429975604386
74	300768	26	4.9112529297096
74	334579	27	7.0913509337503
74	371300	28	8.2444437285
74	408173	29	8.3004876898928
74	447924	30	8.2041324698925
74	490825	31	8.2952931332518
74	536996	32	8.2920834027883
74	586733	33	8.2058336158097
74	639804	34	8.2711287746578
74	696505	35	8.2789500000887
74	756956	36	8.268707636313
74	817407	37	8.2777243184298
74	881928	38	8.2064395487891
74	949453	39	8.2770601203991
74	1021469	40	8.2383913351898
74	1093565	41	8.3279589307937
74	1165986	42	8.2347235379298
74	1241957	43	8.3190213481197
74	1318005	44	8.314368591595
74	1402914	45	8.3037639023783
74	1492222	46	7.1594691772731
74	1586501	47	4.5205126553437
74	1685501	48	4.8116002376143
74	1790127	49	6.9479642934071
74	1899057	50	8.2859252658859
74	2003552	51	8.2633768837037
74	2112536	52	6.0132495294707
74	2221780	53	3.6181284153485
74	2330759	54	5.7484086483719
74	2439746	55	7.6438319928969
74	2548994	56	8.3197993673896
74	2657977	57	8.2342169560958
74	2767219	58	5.5630984683767
74	2876205	59	3.2315748512849
74	2985596	60	5.7992826051858
74	3094587	61	7.9423321889841
74	3203577	62	8.2346858859202
74	3307708	63	8.2229720999929
74	3411432	64	8.2376815497014
74	3515304	65	8.2816405090503
74	3619126	66	8.3111561911018
74	3723198	67	8.2804817581666
74	3827214	68	8.2681286636018
74	3925984	69	8.2378532055509
74	4024983	70	8.2534844286856
74	4123732	71	8.2015555217443
74	4222591	72	8.2797500492143
74	4321770	73	8.2835919513367
74	4421307	74	8.2579728612956
74	4520490	75	8.2536656363844
74	4619777	76	8.3066931422218
68	81678	16	497.40725237991
68	94699	17	497.40725237991
68	109550	18	493.91070002269
68	126351	19	488.7546629558
68	145222	20	481.71180868337
68	166283	21	472.73017797817
68	189654	22	461.81102777846
68	215455	23	449.04533365923
68	241256	24	437.79927424875
68	269607	25	429.69390126676
68	300768	26	424.3468795019
68	334579	27	420.37584018083
68	371300	28	416.91779469082
68	408173	29	415.90651955802
68	447924	30	414.97706684882
68	490825	31	414.04834974484
68	536996	32	413.11962268525
68	586733	33	412.18901766346
68	639804	34	411.26243403047
68	696505	35	410.33171619898
68	756956	36	409.3866394047
68	817407	37	408.35738986035
68	881928	38	407.28591400676
68	949453	39	406.21517050683
68	1021469	40	405.14297145218
68	1093565	41	404.07242303003
68	1165986	42	403.0002793807
68	1241957	43	401.9292129751
68	1318005	44	400.85475682553
68	1402914	45	399.78449514382
68	1492222	46	398.69830741323
68	1586501	47	397.65320606495
68	1685501	48	396.91222067089
68	1790127	49	396.38099993708
68	1899057	50	395.59270340947
68	2003552	51	394.55384653318
68	2112536	52	393.4623697683
68	2221780	53	392.50449383734
68	2330759	54	391.88968888675
68	2439746	55	391.28359478949
68	2548994	56	390.48001690974
68	2657977	57	389.5842152854
68	2767219	58	388.68108772785
68	2876205	59	387.9312739968
68	2985596	60	387.46263803416
68	3094587	61	386.95152185534
68	3203577	62	386.14398678347
68	3307708	63	385.16657994942
68	3411432	64	384.15105882703
68	3515304	65	383.03646070981
68	3619126	66	381.90066175978
68	3723198	67	380.76484746628
68	3827214	68	379.63170143228
68	3925984	69	378.49771202249
68	4024983	70	377.36299746621
68	4123732	71	376.22746787284
68	4222591	72	375.094217818
68	4321770	73	373.95943249211
68	4421307	74	372.82596403435
68	4520490	75	371.6901912936
68	4619777	76	370.5538436398
67	81678	16	434.27848932052
67	94699	17	434.27848932052
67	109550	18	431.28710194641
67	126351	19	431.75377029187
67	145222	20	432.39121279044
67	166283	21	433.20413222573
67	189654	22	434.19241483338
67	215455	23	435.3478264947
67	241256	24	436.36569736529
67	269607	25	437.09930749063
67	300768	26	437.58326169185
67	334579	27	437.206897314
67	371300	28	432.53446371898
67	408173	29	424.56531883993
67	447924	30	416.34494186349
67	490825	31	408.1310708148
67	536996	32	399.91711171557
67	586733	33	391.68654331806
67	639804	34	383.49154136909
67	696505	35	375.25997524652
67	756956	36	367.02557639712
67	817407	37	358.82105765578
67	881928	38	350.62432579873
67	949453	39	342.43319640721
67	1021469	40	334.23093210149
67	1093565	41	326.04129504437
67	1165986	42	317.83945458626
67	1241957	43	309.64585498401
67	1318005	44	301.42632402518
67	1402914	45	293.23888051677
67	1492222	46	285.05876111822
67	1586501	47	277.1229519002
67	1685501	48	271.43655059492
67	1790127	49	267.35990576715
67	1899057	50	261.34654591194
67	2003552	51	253.54830389235
67	2112536	52	245.374006682
67	2221780	53	238.20027399044
67	2330759	54	233.59587144682
67	2439746	55	229.05670630115
67	2548994	56	222.3556482262
67	2657977	57	214.21222082246
67	2767219	58	206.00219585569
67	2876205	59	199.18589465775
67	2985596	60	194.92568476657
67	3094587	61	190.29408487195
67	3203577	62	183.31791216716
67	3307708	63	175.12229969082
67	3411432	64	166.94198238015
67	3515304	65	158.76462326113
67	3619126	66	150.57648817126
67	3723198	67	142.38824246814
67	3827214	68	134.21923262471
67	3925984	69	126.04414276599
67	4024983	70	117.86382522389
67	4123732	71	109.67763196416
67	4222591	72	101.50787221977
67	4321770	73	93.327044489548
67	4421307	74	85.155710247659
67	4520490	75	76.967764104157
67	4619777	76	68.775673331272
48	28063	11	4.310305650694
48	36314	12	5.0386940100437
48	46035	13	6.143871052636
48	57346	14	7.5158633637331
48	68657	15	0.973
48	81678	16	0.973
48	94699	17	1.4862558421281
48	109550	18	1.6114604962948
48	126351	19	1.4872623460303
48	145222	20	1.7168536252014
48	166283	21	1.647183158108
48	189654	22	1.5562198492644
48	215455	23	1.3463332234968
48	241256	24	1.611016200651
48	269607	25	1.5767201425007
48	300768	26	1.5881828848401
48	334579	27	1.5941623773726
48	371300	28	1.5891959558051
48	408173	29	1.4401940322664
48	447924	30	1.5641461701007
48	490825	31	0.973
48	536996	32	0.973
48	586733	33	2.6514732334563
48	639804	34	4.9224539041503
48	696505	35	3.8099725089766
48	756956	36	1.6299793224302
48	817407	37	1.6316292437478
48	881928	38	1.5677688969525
48	949453	39	1.639241572201
48	1021469	40	1.3845765270731
48	1093565	41	1.5426537264394
48	1165986	42	1.5082502072553
48	1241957	43	1.6718723610687
48	1318005	44	1.5985181614264
48	1402914	45	1.5210263440125
48	1492222	46	1.6695029878829
48	1586501	47	1.373711035814
48	1685501	48	0.973
48	1790127	49	0.973
48	1899057	50	5.0297418295573
48	2003552	51	4.7481319348146
48	2112536	52	2.6778523356423
48	2221780	53	1.715481564087
48	2330759	54	1.522256236689
48	2439746	55	1.366342433014
48	2548994	56	1.6561661537887
48	2657977	57	1.5831605295531
48	2767219	58	0.973
48	2876205	59	0.973
48	2985596	60	4.2132932571524
48	3094587	61	5.1479138712805
48	3203577	62	3.0064140099603
48	3307708	63	1.4106897217308
48	3411432	64	1.7371030500906
48	3515304	65	1.4891289265105
48	3619126	66	1.4606149511583
48	3723198	67	0.973
48	3827214	68	0.973
48	3925984	69	4.2611674561319
48	4024983	70	4.921682502282
48	4123732	71	3.1731441593502
48	4222591	72	1.5408649903159
48	4321770	73	1.517012858433
48	4421307	74	1.6691887203564
48	4520490	75	1.5175360766643
48	4619777	76	1.5887625485872
48	4719061	77	1.4617403218281
47	28063	11	1.9208743165294
47	36314	12	1.8067497476283
47	46035	13	1.8728010389372
47	57346	14	1.9831389664579
47	68657	15	-1.753777939192
47	81678	16	-1.8767107624584
47	94699	17	-0.03594610464992
47	109550	18	0.026330003254115
47	126351	19	-0.035176463769748
47	145222	20	0.077570317259523
47	166283	21	0.041076199172531
47	189654	22	-0.0041340896836495
47	215455	23	-0.10661334897624
47	241256	24	0.026147988126613
47	269607	25	0.0085764502757222
47	300768	26	0.013852484121454
47	334579	27	0.0162745267828
47	371300	28	0.013314597019926
47	408173	29	-0.059681837630924
47	447924	30	0.0027111696754574
47	490825	31	-1.7214265963127
47	536996	32	-2.5003018384803
47	586733	33	1.0528360317521
47	639804	34	2.0150097033102
47	696505	35	1.1373273824931
47	756956	36	0.035178360391875
47	817407	37	0.03469011584064
47	881928	38	0.0026258298521853
47	949453	39	0.036988643365913
47	1021469	40	-0.087898089899682
47	1093565	41	-0.0080216719140296
47	1165986	42	-0.024608318905813
47	1241957	43	0.055852261418478
47	1318005	44	0.018352129687555
47	1402914	45	-0.019858546985779
47	1492222	46	0.05261025792919
47	1586501	47	-0.092951897571329
47	1685501	48	-2.4211662281114
47	1790127	49	-2.3710002830154
47	1899057	50	2.5204770167498
47	2003552	51	1.7404907718534
47	2112536	52	0.56218184506421
47	2221780	53	0.075003444324247
47	2330759	54	-0.020648380364293
47	2439746	55	-0.096426786952652
47	2548994	56	0.048153458237648
47	2657977	57	0.011078526601196
47	2767219	58	-2.3399330261394
47	2876205	59	-2.4203610012515
47	2985596	60	2.0886115882133
47	3094587	61	1.9870909090457
47	3203577	62	0.72092691855394
47	3307708	63	-0.074532049989793
47	3411432	64	0.086210627744439
47	3515304	65	-0.036449235328472
47	3619126	66	-0.049372191941366
47	3723198	67	-2.3928828703021
47	3827214	68	-2.3950285443568
47	3925984	69	2.1330071853248
47	4024983	70	1.8954207771039
47	4123732	71	0.80763409424386
47	4222591	72	-0.010153169445694
47	4321770	73	-0.021455603577197
47	4421307	74	0.052977213372943
47	4520490	75	-0.022151179427748
47	4619777	76	0.013089695519303
47	4719061	77	-0.049120353963227
44	21162	10	4.2964308685591
44	28063	11	6.2173051850884
44	36314	12	8.0240549327168
44	46035	13	9.896855971654
44	57346	14	11.879994938112
44	68657	15	10.12621699892
44	81678	16	8.2495062364615
44	94699	17	8.2135601318115
44	109550	18	8.2398901350657
44	126351	19	8.2047136712959
44	145222	20	8.2822839885554
44	166283	21	8.323360187728
44	189654	22	8.3192260980443
44	215455	23	8.2126127490681
44	241256	24	8.2387607371947
44	269607	25	8.2473371874704
44	300768	26	8.2611896715919
44	334579	27	8.2774641983747
44	371300	28	8.2907787953946
44	408173	29	8.2310969577637
44	447924	30	8.2338081274391
44	490825	31	6.5123815311265
44	536996	32	4.0120796926462
44	586733	33	5.0649157243983
44	639804	34	7.0799254277085
44	696505	35	8.2172528102016
44	756956	36	8.2524311705935
44	817407	37	8.2871212864341
44	881928	38	8.2897471162863
44	949453	39	8.3267357596522
44	1021469	40	8.2388376697525
44	1093565	41	8.2308159978385
44	1165986	42	8.2062076789327
44	1241957	43	8.2620599403512
44	1318005	44	8.2804120700387
44	1402914	45	8.260553523053
44	1492222	46	8.3131637809821
44	1586501	47	8.2202118834108
44	1685501	48	5.7990456552995
44	1790127	49	3.4280453722841
44	1899057	50	5.9485223890339
44	2003552	51	7.6890131608872
44	2112536	52	8.2511950059515
44	2221780	53	8.3261984502757
44	2330759	54	8.3055500699114
44	2439746	55	8.2091232829588
44	2548994	56	8.2572767411964
44	2657977	57	8.2683552677976
44	2767219	58	5.9284222416582
44	2876205	59	3.5080612404067
44	2985596	60	5.59667282862
44	3094587	61	7.5837637376657
44	3203577	62	8.3046906562196
44	3307708	63	8.2301586062298
44	3411432	64	8.3163692339743
44	3515304	65	8.2799199986458
44	3619126	66	8.2305478067044
44	3723198	67	5.8376649364023
44	3827214	68	3.4426363920455
44	3925984	69	5.5756435773703
44	4024983	70	7.4710643544742
44	4123732	71	8.2786984487181
44	4222591	72	8.2685452792724
44	4321770	73	8.2470896756952
44	4421307	74	8.3000668890681
44	4520490	75	8.2779157096404
44	4619777	76	8.2910054051597
44	4719061	77	8.2418850511964
36	15491	9	161.4119483796
36	21162	10	161.4119483796
36	28063	11	164.6488398615
36	36314	12	169.93586791492
36	46035	13	177.14099977558
36	57346	14	186.1412306622
36	68657	15	197.0098760504
36	81678	16	208.44781053265
36	94699	17	209.63293753303
36	109550	18	209.65312509507
36	126351	19	209.67331224414
36	145222	20	209.69346614626
36	166283	21	209.71365811973
36	189654	22	209.73387781199
36	215455	23	209.75409834525
36	241256	24	209.77428371626
36	269607	25	209.80863030988
36	300768	26	209.87129138114
36	334579	27	209.93481450055
36	371300	28	209.99837340688
36	408173	29	210.06182690232
36	447924	30	210.12530502078
36	490825	31	210.1886696191
36	536996	32	210.24716006046
36	586733	33	210.24513500411
36	639804	34	210.17255637995
36	696505	35	210.05098017176
36	756956	36	210.03630881318
36	817407	37	210.04413709611
36	881928	38	210.30079938305
36	949453	39	211.28925448826
36	1021469	40	212.27999546066
36	1093565	41	213.26725482948
36	1165986	42	214.25479655068
36	1241957	43	215.24348595663
36	1318005	44	216.23188144327
36	1402914	45	217.21786335543
36	1492222	46	218.20606296368
36	1586501	47	219.19485547756
36	1685501	48	220.18411619283
36	1790127	49	221.02429336498
36	1899057	50	221.55478549454
36	2003552	51	222.08212024333
36	2112536	52	216.99717929407
36	2221780	53	208.82345764618
36	2330759	54	200.570319458
36	2439746	55	192.30695900868
36	2548994	56	184.05995730249
36	2657977	57	175.8025364321
36	2767219	58	167.5524707408
36	2876205	59	160.42628621995
36	2985596	60	155.87807512706
36	3094587	61	151.45540011232
36	3203577	62	148.18189472632
36	3307708	63	148.30758039591
36	3411432	64	148.43455017087
36	3515304	65	148.5618437919
36	3619126	66	148.68612324295
36	3723198	67	148.79989075782
36	3827214	68	148.89651758083
36	3925984	69	148.95795751343
36	4024983	70	149.01816659154
36	4123732	71	149.11554091408
36	4222591	72	149.23697075464
36	4321770	73	149.36146133396
36	4421307	74	149.48622718605
36	4520490	75	149.6108933995
36	4619777	76	149.73567329145
36	4719061	77	149.86031926501
35	15491	9	460.24865296641
35	21162	10	460.24865296641
35	28063	11	459.83947765267
35	36314	12	459.17114466264
35	46035	13	458.26034425241
35	57346	14	457.1226254511
35	68657	15	455.74872045259
35	81678	16	453.77866479019
35	94699	17	445.57612320528
35	109550	18	437.31562516277
35	126351	19	429.05529610095
35	145222	20	420.80857127661
35	166283	21	412.54626813322
35	189654	22	404.27262280637
35	215455	23	395.99863335485
35	241256	24	387.73903185234
35	269607	25	379.46398241765
35	300768	26	371.19746381684
35	334579	27	362.92426798265
35	371300	28	354.64641129111
35	408173	29	346.38228322208
35	447924	30	338.11494827225
35	490825	31	329.86239808608
35	536996	32	322.24465386507
35	586733	33	317.17305201365
35	639804	34	313.08669139862
35	696505	35	306.86335875239
35	756956	36	298.90051090423
35	817407	37	290.64950069756
35	881928	38	282.38715695087
35	949453	39	274.17821791682
35	1021469	40	265.95029517343
35	1093565	41	257.75128651162
35	1165986	42	249.5499329649
35	1241957	43	241.33904810599
35	1318005	44	233.1306041933
35	1402914	45	224.9422045756
35	1492222	46	216.73538739714
35	1586501	47	208.52364624571
35	1685501	48	200.30801676733
35	1790127	49	193.3304988734
35	1899057	50	188.92485867114
35	2003552	51	184.10702485085
35	2112536	52	181.0985462191
35	2221780	53	180.78303727003
35	2330759	54	180.45117585201
35	2439746	55	180.11890339348
35	2548994	56	179.78728872543
35	2657977	57	179.45525509934
35	2767219	58	179.12351722744
35	2876205	59	178.83697098936
35	2985596	60	178.65408591603
35	3094587	61	178.47624868995
35	3203577	62	182.95403299979
35	3307708	63	191.12862894992
35	3411432	64	199.38674311318
35	3515304	65	207.66592022507
35	3619126	66	215.91967781716
35	3723198	67	224.17407545137
35	3827214	68	231.24449332834
35	3925984	69	235.74020149991
35	4024983	70	240.14584507728
35	4123732	71	246.76313345513
35	4222591	72	254.88290728305
35	4321770	73	263.13622228318
35	4421307	74	271.40778696106
35	4520490	75	279.67274592508
35	4619777	76	287.94524139919
35	4719061	77	296.20885852565
93	166283	21	3.8222969105764
93	189654	22	4.7050518977218
93	215455	23	6.3558228048928
93	241256	24	0.973
93	269607	25	0.973
93	300768	26	0.973
93	334579	27	4.8796729435872
93	371300	28	5.6406838970683
93	408173	29	6.4409724077049
93	447924	30	7.865767536398
93	490825	31	7.8895647339252
93	536996	32	0.973
93	586733	33	0.973
93	639804	34	1.5974137508715
93	696505	35	1.4743628214641
93	756956	36	1.6508517427298
93	817407	37	1.5207446338091
93	881928	38	1.5356237395232
93	949453	39	1.5944573223394
93	1021469	40	1.5858618795082
93	1093565	41	1.3671801382399
93	1165986	42	1.634594174674
93	1241957	43	1.6397646816029
93	1318005	44	1.6305736580383
93	1402914	45	1.3511539535224
93	1492222	46	1.7744060765755
93	1586501	47	1.3129387895999
93	1685501	48	0.973
93	1790127	49	0.973
93	1899057	50	1.6453868253357
93	2003552	51	4.7192134187637
93	2112536	52	4.5770811234212
93	2221780	53	1.6524740498805
93	2330759	54	1.5581882658971
93	2439746	55	1.569177841426
93	2548994	56	1.6126466759294
93	2657977	57	1.3580312532325
93	2767219	58	1.7732410586051
93	2876205	59	1.546940986374
93	2985596	60	1.4941888870335
93	3094587	61	1.4183936198739
93	3203577	62	1.7378129466791
93	3307708	63	1.4275595788499
93	3411432	64	1.7190870159295
93	3515304	65	0.973
93	3619126	66	0.973
93	3723198	67	3.5771912860554
93	3827214	68	5.3721657632623
93	3925984	69	2.8147026422195
93	4024983	70	1.6146629058691
93	4123732	71	1.5045078482502
93	4222591	72	1.5732878671647
93	4321770	73	1.7048333267722
93	4421307	74	1.4823683211463
93	4520490	75	0.973
93	4619777	76	0.973
93	4719061	77	2.8375753879088
93	4813103	78	5.2223830046573
93	4902558	79	3.4760363268892
93	4992115	80	1.8195640256885
93	5081671	81	1.3138807407144
93	5171489	82	1.6535505194511
93	5261144	83	1.7119951168462
93	5350697	84	1.3361621303611
93	5440488	85	1.6324294150608
92	166283	21	1.8116472297907
92	189654	22	1.8042833388527
92	215455	23	2.0720676290197
92	241256	24	-0.87945032606885
92	269607	25	-2.82449060843
92	300768	26	-2.2897953832974
92	334579	27	2.4433906963235
92	371300	28	2.1223365584062
92	408173	29	1.9766521241865
92	447924	30	2.0693492681859
92	490825	31	1.7624432528835
92	536996	32	-2.5766444440521
92	586733	33	-2.9315553710228
92	639804	34	0.016167219849303
92	696505	35	-0.043913749181666
92	756956	36	0.042840045036282
92	817407	37	-0.02134580413578
92	881928	38	-0.013479130389168
92	949453	39	0.015419712462462
92	1021469	40	0.010749762693886
92	1093565	41	-0.096246850781608
92	1165986	42	0.037306963668669
92	1241957	43	0.038428190909327
92	1318005	44	0.032604001094587
92	1402914	45	-0.10441931143403
92	1492222	46	0.10427045376273
92	1586501	47	-0.12334234450944
92	1685501	48	-1.0130896549147
92	1790127	49	-2.7206049219551
92	1899057	50	0.26071812636054
92	2003552	51	2.0052850306267
92	2112536	52	1.5166683052074
92	2221780	53	0.044677026036661
92	2330759	54	-0.0023868803447122
92	2439746	55	0.0030072205211038
92	2548994	56	0.023867590760347
92	2657977	57	-0.10090982620139
92	2767219	58	0.10379661038518
92	2876205	59	-0.0086997426999744
92	2985596	60	-0.034013476034159
92	3094587	61	-0.070217069906649
92	3203577	62	0.087271279639099
92	3307708	63	-0.066131449344102
92	3411432	64	0.077424501974601
92	3515304	65	-1.9980826455913
92	3619126	66	-2.5343018578883
92	3723198	67	1.667858927341
92	3827214	68	2.1162076643109
92	3925984	69	0.63667596998419
92	4024983	70	0.028370991160628
92	4123732	71	-0.026371891177259
92	4222591	72	0.0081401991588059
92	4321770	73	0.071572287185118
92	4421307	74	-0.038766113817692
92	4520490	75	-1.8171287931755
92	4619777	76	-2.5325393991993
92	4719061	77	1.1978956768869
92	4813103	78	2.1396613106411
92	4902558	79	0.97103965659213
92	4992115	80	0.12675428877352
92	5081671	81	-0.12288047611481
92	5171489	82	0.047016817328986
92	5261144	83	0.073272645680699
92	5350697	84	-0.11178543478716
92	5440488	85	0.036475178017282
89	145222	20	3.7497099244762
89	166283	21	5.5613571542669
89	189654	22	7.3656404931196
89	215455	23	9.4377081221393
89	241256	24	8.5582577960705
89	269607	25	5.7337671876405
89	300768	26	3.443971804343
89	334579	27	5.8873625006665
89	371300	28	8.0096990590728
89	408173	29	9.9863511832593
89	447924	30	12.055700451445
89	490825	31	13.818143704329
89	536996	32	11.241499260277
89	586733	33	8.3099438892538
89	639804	34	8.3261111091031
89	696505	35	8.2821973599214
89	756956	36	8.3250374049577
89	817407	37	8.3036916008219
89	881928	38	8.2902124704327
89	949453	39	8.3056321828952
89	1021469	40	8.3163819455891
89	1093565	41	8.2201350948075
89	1165986	42	8.2574420584762
89	1241957	43	8.2958702493855
89	1318005	44	8.3284742504801
89	1402914	45	8.224054939046
89	1492222	46	8.3283253928088
89	1586501	47	8.2049830482993
89	1685501	48	7.1918933933847
89	1790127	49	4.4712884714295
89	1899057	50	4.7320065977901
89	2003552	51	6.7372916284168
89	2112536	52	8.2539599336241
89	2221780	53	8.2986369596608
89	2330759	54	8.2962500793161
89	2439746	55	8.2992572998372
89	2548994	56	8.3231248905975
89	2657977	57	8.2222150643962
89	2767219	58	8.3260116747813
89	2876205	59	8.3173119320814
89	2985596	60	8.2832984560472
89	3094587	61	8.2130813861405
89	3203577	62	8.3003526657796
89	3307708	63	8.2342212164355
89	3411432	64	8.3116457184101
89	3515304	65	6.3135630728188
89	3619126	66	3.7792612149305
89	3723198	67	5.4471201422715
89	3827214	68	7.5633278065824
89	3925984	69	8.2000037765666
89	4024983	70	8.2283747677272
89	4123732	71	8.20200287655
89	4222591	72	8.2101430757088
89	4321770	73	8.2817153628939
89	4421307	74	8.2429492490762
89	4520490	75	6.4258204559007
89	4619777	76	3.8932810567014
89	4719061	77	5.0911767335883
89	4813103	78	7.2308380442294
89	4902558	79	8.2018777008215
89	4992115	80	8.328631989595
89	5081671	81	8.2057515134802
89	5171489	82	8.2527683308092
89	5261144	83	8.3260409764899
89	5350697	84	8.2142555417027
89	5440488	85	8.25073071972
81	126351	19	201.03924390157
81	145222	20	201.03924390157
81	166283	21	198.11805415507
81	189654	22	193.41044807689
81	215455	23	186.93225244308
81	241256	24	178.51411862142
81	269607	25	169.01330638817
81	300768	26	162.06587160892
81	334579	27	157.68484310907
81	371300	28	154.02524189376
81	408173	29	160.32529192833
81	447924	30	169.31794741088
81	490825	31	180.34829158056
81	536996	32	193.26384293278
81	586733	33	206.0903100461
81	639804	34	209.62809995125
81	696505	35	209.64833867792
81	756956	36	209.66858757691
81	817407	37	209.68878159577
81	881928	38	209.70899940212
81	949453	39	209.72921543415
81	1021469	40	209.74944167035
81	1093565	41	209.76966120457
81	1165986	42	209.79933302942
81	1241957	43	209.85660454829
81	1318005	44	209.92016871122
81	1402914	45	209.98360204893
81	1492222	46	210.04687752575
81	1586501	47	210.11044363161
81	1685501	48	210.17376046003
81	1790127	49	210.23532088218
81	1899057	50	210.25662033973
81	2003552	51	210.20708665825
81	2112536	52	210.07170903896
81	2221780	53	210.03483686515
81	2330759	54	210.04267794612
81	2439746	55	210.11627470855
81	2548994	56	211.10651859667
81	2657977	57	212.09674313496
81	2767219	58	213.08300478019
81	2876205	59	214.0727339242
81	2985596	60	215.05952907529
81	3094587	61	216.05002816628
81	3203577	62	217.04020717035
81	3307708	63	218.02852524754
81	3411432	64	219.01676209907
81	3515304	65	220.00696535994
81	3619126	66	220.89950440706
81	3723198	67	221.4829536369
81	3827214	68	222.00077125905
81	3925984	69	218.46944444284
81	4024983	70	210.30575673583
81	4123732	71	202.05008379447
81	4222591	72	193.80776042398
81	4321770	73	185.55075146075
81	4421307	74	177.2741492442
81	4520490	75	169.01183060409
81	4619777	76	161.47627734203
81	4719061	77	156.50910865933
81	4813103	78	152.45723025929
81	4902558	79	148.16158954873
81	4992115	80	148.28505747509
81	5081671	81	148.41203495168
81	5171489	82	148.5390523829
81	5261144	83	148.6658273028
81	5350697	84	148.78020136787
81	5440488	85	148.89313634387
80	126351	19	458.56134632639
80	145222	20	458.56134632639
80	166283	21	458.93068562521
80	189654	22	459.52588966155
80	215455	23	460.34495738417
80	241256	24	461.40930031046
80	269607	25	462.61053118998
80	300768	26	463.48892695083
80	334579	27	464.04284029938
80	371300	28	462.45238565298
80	408173	29	460.38601716192
80	447924	30	459.24925596712
80	490825	31	457.85491063256
80	536996	32	456.22225633872
80	586733	33	454.6008631797
80	639804	34	447.5556011994
80	696505	35	439.27416722968
80	756956	36	430.98857087369
80	817407	37	422.72543078084
80	881928	38	414.45255714423
80	949453	39	406.18040953826
80	1021469	40	397.90408651398
80	1093565	41	389.63050585691
80	1165986	42	381.39161856658
80	1241957	43	373.11026415663
80	1318005	44	364.83172284994
80	1402914	45	356.57022010524
80	1492222	46	348.32927702648
80	1586501	47	340.05048267443
80	1685501	48	331.8041539994
80	1790127	49	323.78657814916
80	1899057	50	318.14164865091
80	2003552	51	314.12259974742
80	2112536	52	308.16098583886
80	2221780	53	300.45194412762
80	2330759	54	292.18744478552
80	2439746	55	283.91960065551
80	2548994	56	275.6958061062
80	2657977	57	267.47217225375
80	2767219	58	259.28144950403
80	2876205	59	251.06192981057
80	2985596	60	242.86677639218
80	3094587	61	234.64086242969
80	3203577	62	226.41760673058
80	3307708	63	218.20980568926
80	3411432	64	210.0026792121
80	3515304	65	201.77922206475
80	3619126	66	194.36684836699
80	3723198	67	189.52140912341
80	3827214	68	185.2210283893
80	3925984	69	181.13906727824
80	4024983	70	180.84264100701
80	4123732	71	180.51067766572
80	4222591	72	180.1792511151
80	4321770	73	179.84723405193
80	4421307	74	179.51442913756
80	4520490	75	179.18219857053
80	4619777	76	178.87919147988
80	4719061	77	178.67945998321
80	4813103	78	178.51653261173
80	4902558	79	181.63338424956
80	4992115	80	189.66373818014
80	5081671	81	197.92235325741
80	5171489	82	206.18356698356
80	5261144	83	214.46706838583
80	5350697	84	222.73335526293
80	5440488	85	230.99708005859
108	241256	24	3.9197484735179
108	269607	25	4.9758055203287
108	300768	26	6.7858003247552
108	334579	27	6.6767922672907
108	371300	28	8.4508021157976
108	408173	29	2.7831003619066
108	447924	30	2.1564038035867
108	490825	31	2.2728103829653
108	536996	32	0.973
108	586733	33	0.973
108	639804	34	0.973
108	696505	35	0.973
108	756956	36	0.973
108	817407	37	0.973
108	881928	38	0.973
108	949453	39	0.973
108	1021469	40	0.973
108	1093565	41	1.1799780727464
108	1165986	42	1.9094800557949
108	1241957	43	2.344960988383
108	1318005	44	4.7010276028638
108	1402914	45	4.1128367700653
108	1492222	46	2.3389072763254
108	1586501	47	1.8247805850964
108	1685501	48	1.7434041258335
[...]
219	6867677	103	258.54223774204
219	6927574	104	251.31550450769
219	6979943	105	244.6545146879
219	7029535	106	239.00064635636
219	7078953	107	233.32931294465
219	7124658	108	227.95234969867
219	7170439	109	223.34054866239
219	7216156	110	217.75218810811
219	7255446	111	213.66163223358
219	7294798	112	209.98886475066
219	7334150	113	209.62940517895
219	7370321	114	209.64958520957
219	7406492	115	209.66979669944
219	7440033	116	209.6899611075
219	7470691	117	209.71017609121
219	7499042	118	209.73039930156
219	7524843	119	209.75059587969
219	7548214	120	209.77080030247
219	7571585	121	209.80174327247
219	7594956	122	209.86027933167
219	7616017	123	209.92375211615
219	7637078	124	209.98710614001
219	7653879	125	210.05046883876
219	7668730	126	210.11358274062
219	7683581	127	210.1669879222
219	7696602	128	210.21133855883
219	7706323	129	210.25924628415
219	7716044	130	210.23389271418
219	7724295	131	210.12261794481
219	7732546	132	210.03119396041
219	7740797	133	210.03901150375
219	7749048	134	210.04686127499
219	7755949	135	210.64131488341
219	7762850	136	211.63023663142
219	7769751	137	212.61953521915
219	7775422	138	213.61033128949
219	7781093	139	214.59842195814
219	7786764	140	215.58656137074
219	7792435	141	216.57664701198
219	7798106	142	217.56514382451
219	7803777	143	218.55186043732
219	7809448	144	219.46013121789
219	7815119	145	220.22127072337
219	7820790	146	221.00595696426
219	7826461	147	221.54616130764
219	7832132	148	222.0781934139
219	7837803	149	225.72596543514
219	7843474	150	233.93051329667
218	1492222	46	445.78226572104
218	1586501	47	445.78226572104
218	1685501	48	445.48916368384
218	1790127	49	445.03006074835
218	1899057	50	444.38498702903
218	2003552	51	443.56226331595
218	2112536	52	442.56556309947
218	2221780	53	441.60185635879
218	2330759	54	440.91180179906
218	2439746	55	440.46282479046
218	2548994	56	440.77298901043
218	2657977	57	447.02303367134
218	2767219	58	447.75860402184
218	2876205	59	448.62063630499
218	2985596	60	449.28719961838
218	3094587	61	449.72273405111
218	3203577	62	449.96764427972
218	3307708	63	450.08768123032
218	3411432	64	450.13917723955
218	3515304	65	450.16644046693
218	3619126	66	450.16644046693
218	3723198	67	450.16644046693
218	3827214	68	450.16644046693
218	3925984	69	450.16644046693
218	4024983	70	450.16644046693
218	4123732	71	450.16644046693
218	4222591	72	450.16644046693
218	4321770	73	450.16644046693
218	4421307	74	450.16644046693
218	4520490	75	450.16644046693
218	4619777	76	450.16644046693
218	4719061	77	450.16644046693
218	4813103	78	450.16644046693
218	4902558	79	450.16644046693
218	4992115	80	450.16644046693
218	5081671	81	450.16644046693
218	5171489	82	450.16644046693
218	5261144	83	450.16644046693
218	5350697	84	450.16644046693
218	5440488	85	450.16644046693
218	5530145	86	450.16644046693
218	5614930	87	450.16644046693
218	5699804	88	450.16644046693
218	5784479	89	450.16644046693
218	5869053	90	450.16644046693
218	5953509	91	450.16644046693
218	6038166	92	450.18728561082
218	6123154	93	450.22587574989
218	6207903	94	450.27460921956
218	6292639	95	450.43404981785
218	6372615	96	450.74945434962
218	6452790	97	451.23164954615
218	6529441	98	451.88101720365
218	6601156	99	452.58750371347
218	6672761	100	452.25672686642
218	6740476	101	450.6552220185
218	6807790	102	451.3868519439
218	6867677	103	452.12209899696
218	6927574	104	452.91252294447
218	6979943	105	453.64106870601
218	7029535	106	454.25946055477
218	7078953	107	454.88011903804
218	7124658	108	455.46892359848
218	7170439	109	455.97393904266
218	7216156	110	456.58589267322
218	7255446	111	457.03382914656
218	7294798	112	454.16564831442
218	7334150	113	447.02151833924
218	7370321	114	438.76410206087
218	7406492	115	430.49381304886
218	7440033	116	422.24278932533
218	7470691	117	413.97107067604
218	7499042	118	405.69598579196
218	7524843	119	397.43179848139
218	7548214	120	389.16440123245
218	7571585	121	380.89189484049
218	7594956	122	372.63166356472
218	7616017	123	364.36502330763
218	7637078	124	356.11385032988
218	7653879	125	347.86154754297
218	7668730	126	339.64164784617
218	7683581	127	332.68620343674
218	7696602	128	326.91001508776
218	7706323	129	320.67055460129
218	7716044	130	316.22495222946
218	7724295	131	311.34788334505
218	7732546	132	304.29156573125
218	7740797	133	296.05187504617
218	7749048	134	287.77821615977
218	7755949	135	279.55923794082
218	7762850	136	271.34642352358
218	7769751	137	263.13047952134
218	7775422	138	254.90209919968
218	7781093	139	246.69618674462
218	7786764	140	238.48986948008
218	7792435	141	230.26738914221
218	7798106	142	222.05810373646
218	7803777	143	213.86360256416
218	7809448	144	206.32057969465
218	7815119	145	199.99945518024
218	7820790	146	193.48277933083
218	7826461	147	188.99648096753
218	7832132	148	184.57805154024
218	7837803	149	179.512528526
218	7843474	150	179.04583352989
246	2003552	51	4.5181603849254
246	2112536	52	5.0469811233694
246	2221780	53	2.0121733939298
246	2330759	54	1.7474136158021
246	2439746	55	0.973
246	2548994	56	0.973
246	2657977	57	3.64066451033
246	2767219	58	5.1344181989745
246	2876205	59	0.973
246	2985596	60	0.973
246	3094587	61	1.681323039771
246	3203577	62	0.973
246	3307708	63	4.9733620327994
246	3411432	64	5.5742811692023
246	3515304	65	1.6807854256433
246	3619126	66	1.5612646043677
246	3723198	67	1.6189445460814
246	3827214	68	1.4317768386067
246	3925984	69	1.6371770952371
246	4024983	70	1.53469242887
246	4123732	71	1.6814523166059
246	4222591	72	1.515706563275
246	4321770	73	1.4066371049388
246	4421307	74	1.7363247886656
246	4520490	75	1.5112564829342
246	4619777	76	1.5020601172834
246	4719061	77	1.5440725151084
246	4813103	78	1.5674905246943
246	4902558	79	1.7190711031384
246	4992115	80	1.5297898330018
246	5081671	81	1.411141785668
246	5171489	82	1.537611834112
246	5261144	83	1.5597292688057
246	5350697	84	1.6164089380062
246	5440488	85	0.973
246	5530145	86	1.2261382394807
246	5614930	87	0.973
246	5699804	88	0.973
246	5784479	89	2.0428114766472
246	5869053	90	0.973
246	5953509	91	4.9475155359206
246	6038166	92	5.0986817048286
246	6123154	93	6.2299214272573
246	6207903	94	7.5493763358598
246	6292639	95	0.973
246	6372615	96	0.973
246	6452790	97	0.973
246	6529441	98	0.973
246	6601156	99	0.973
246	6672761	100	0.973
246	6740476	101	0.973
246	6807790	102	0.973
246	6867677	103	0.973
246	6927574	104	0.973
246	6979943	105	0.973
246	7029535	106	0.973
246	7078953	107	0.973
246	7124658	108	0.973
246	7170439	109	0.973
246	7216156	110	0.973
246	7255446	111	1.1802713676994
246	7294798	112	1.1292978432077
246	7334150	113	1.1313360020701
246	7370321	114	1.2324766603042
246	7406492	115	1.7428266860748
246	7440033	116	1.6257048125375
246	7470691	117	2.2415606474744
246	7499042	118	3.081644555229
246	7524843	119	3.5687867882007
246	7548214	120	5.0210972292803
246	7571585	121	5.8523278965585
246	7594956	122	4.9030085469462
246	7616017	123	3.3245404485618
246	7637078	124	3.1695237248197
246	7653879	125	3.5848328642498
246	7668730	126	2.7308754468142
246	7683581	127	2.6022225912672
246	7696602	128	2.798287876895
246	7706323	129	0.973
246	7716044	130	0.973
246	7724295	131	0.973
246	7732546	132	0.973
246	7740797	133	0.973
246	7749048	134	0.973
246	7755949	135	0.973
246	7762850	136	0.973
246	7769751	137	0.973
246	7775422	138	0.973
246	7781093	139	0.973
246	7786764	140	0.973
246	7792435	141	0.973
246	7798106	142	0.973
246	7803777	143	0.973
246	7809448	144	0.973
246	7815119	145	0.973
246	7820790	146	0.973
246	7826461	147	0.973
246	7832132	148	0.973
246	7837803	149	0.973
246	7843474	150	0.973
245	2003552	51	2.0796567131509
245	2112536	52	1.8212605893007
245	2221780	53	0.22967780011154
245	2330759	54	0.091801472683436
245	2439746	55	-1.9420949214355
245	2548994	56	-2.5105330737531
245	2657977	57	1.6842089503255
245	2767219	58	1.9948874042626
245	2876205	59	-1.3585472097976
245	2985596	60	-1.6551825900239
245	3094587	61	0.28450023537092
245	3203577	62	-0.99390918044578
245	3307708	63	2.3765030836454
245	3411432	64	2.0288487523817
245	3515304	65	0.059804133950077
245	3619126	66	-0.00012466507731013
245	3723198	67	0.027768986693117
245	3827214	68	-0.064114591043907
245	3925984	69	0.037882915090304
245	4024983	70	-0.013078710117844
245	4123732	71	0.058238527867944
245	4222591	72	-0.023680349078496
245	4321770	73	-0.076360418961848
245	4421307	74	0.086208186177537
245	4520490	75	-0.025429143279325
245	4619777	76	-0.029157769440207
245	4719061	77	-0.0077800106676307
245	4813103	78	0.0038724420941438
245	4902558	79	0.076804761558305
245	4992115	80	-0.016991072716191
245	5081671	81	-0.074411696435417
245	5171489	82	-0.010346907847561
245	5261144	83	0.00078549534082306
245	5350697	84	0.02832399324514
245	5440488	85	-0.72413268106226
245	5530145	86	-0.15565014806598
245	5614930	87	-1.7047946294808
245	5699804	88	-0.26755990082527
245	5784479	89	0.4484090508657
245	5869053	90	-2.4280572109389
245	5953509	91	2.4831960978941
245	6038166	92	1.8977134506497
245	6123154	93	1.9433101053536
245	6207903	94	2.0181101171067
245	6292639	95	-1.7019203980115
245	6372615	96	-1.7647740736269
245	6452790	97	-1.5810105151966
245	6529441	98	-1.4675594063051
245	6601156	99	-1.03010871909
245	6672761	100	-0.79208740214153
245	6740476	101	-0.68874677392602
245	6807790	102	-0.56414127232287
245	6867677	103	-0.4670628954088
245	6927574	104	-0.43599225309949
245	6979943	105	-0.35028224778333
245	7029535	106	-0.29989943539743
245	7078953	107	-0.18604603601237
245	7124658	108	-0.4341801537486
245	7170439	109	0
245	7216156	110	0
245	7255446	111	0.44906574505207
245	7294798	112	-0.015535645413911
245	7334150	113	0.0027047929319087
245	7370321	114	0.40423051326939
245	7406492	115	1.1305621181024
245	7440033	116	0.62237154390085
245	7470691	117	1.0747039416625
245	7499042	118	1.4031924605685
245	7524843	119	1.3682737020332
245	7548214	120	1.7546038239465
245	7571585	121	1.7423327284012
245	7594956	122	1.1696602402027
245	7616017	123	0.53707975745014
245	7637078	124	0.45040238480626
245	7653879	125	0.55069311264202
245	7668730	126	0.25732881728266
245	7683581	127	0.20634016221613
245	7696602	128	0.25559024405627
245	7706323	129	-0.44206030707462
245	7716044	130	-2.4528547344764
245	7724295	131	-2.2660206281015
245	7732546	132	-1.9468799531815
245	7740797	133	-1.7113432251412
245	7749048	134	-1.4317856032421
245	7755949	135	-1.3249991087525
245	7762850	136	-0.76964589997979
245	7769751	137	-0.58724815902216
245	7775422	138	-0.41833089391744
245	7781093	139	-0.012431930221652
245	7786764	140	0
245	7792435	141	0
245	7798106	142	0
245	7803777	143	0
245	7809448	144	0
245	7815119	145	0
245	7820790	146	0
245	7826461	147	0
245	7832132	148	0
245	7837803	149	0
245	7843474	150	0
242	1899057	50	4.0839751974455
242	2003552	51	6.1636319105964
242	2112536	52	7.9848924998971
242	2221780	53	8.2145703000086
242	2330759	54	8.3063717726921
242	2439746	55	6.3642768512566
242	2548994	56	3.8537437775035
242	2657977	57	5.5379527278289
242	2767219	58	7.5328401320915
242	2876205	59	6.1742929222939
242	2985596	60	4.51911033227
242	3094587	61	4.8036105676409
242	3203577	62	3.8097013871951
242	3307708	63	6.1862044708405
242	3411432	64	8.2150532232222
242	3515304	65	8.2748573571723
242	3619126	66	8.274732692095
242	3723198	67	8.3025016787881
242	3827214	68	8.2383870877442
242	3925984	69	8.2762700028345
242	4024983	70	8.2631912927167
242	4123732	71	8.3214298205846
242	4222591	72	8.2977494715061
242	4321770	73	8.2213890525443
242	4421307	74	8.3075972387218
242	4520490	75	8.2821680954425
242	4619777	76	8.2530103260023
242	4719061	77	8.2452303153346
242	4813103	78	8.2491027574288
242	4902558	79	8.3259075189871
242	4992115	80	8.3089164462709
242	5081671	81	8.2345047498355
242	5171489	82	8.2241578419879
242	5261144	83	8.2249433373287
242	5350697	84	8.2532673305739
242	5440488	85	7.5291346495116
242	5530145	86	7.3734845014456
242	5614930	87	5.6686898719649
242	5699804	88	5.4011299711396
242	5784479	89	5.8495390220053
242	5869053	90	3.4214818110664
242	5953509	91	5.9046779089605
242	6038166	92	7.8023913596103
242	6123154	93	9.7457014649639
242	6207903	94	11.763811582071
242	6292639	95	10.061891184059
242	6372615	96	8.2971171104321
242	6452790	97	6.7161065952356
242	6529441	98	5.2485471889304
242	6601156	99	4.2184384698404
242	6672761	100	3.4263510676989
242	6740476	101	2.7376042937729
242	6807790	102	2.17346302145
242	6867677	103	1.7064001260412
242	6927574	104	1.2704078729417
242	6979943	105	0.9201256251584
242	7029535	106	0.62022618976097
242	7078953	107	0.4341801537486
242	7124658	108	0
242	7170439	109	0
242	7216156	110	0
242	7255446	111	0.44906574505207
242	7294798	112	0.43353009963816
242	7334150	113	0.43623489257006
242	7370321	114	0.84046540583945
242	7406492	115	1.9710275239419
242	7440033	116	2.5933990678427
242	7470691	117	3.6681030095053
242	7499042	118	5.0712954700738
242	7524843	119	6.4395691721069
242	7548214	120	8.1941729960535
242	7571585	121	9.9365057244546
242	7594956	122	11.106165964657
242	7616017	123	11.643245722108
242	7637078	124	12.093648106914
242	7653879	125	12.644341219556
242	7668730	126	12.901670036838
242	7683581	127	13.108010199055
242	7696602	128	13.363600443111
242	7706323	129	12.921540136036
242	7716044	130	10.46868540156
242	7724295	131	8.2026647734583
242	7732546	132	6.2557848202768
242	7740797	133	4.5444415951356
242	7749048	134	3.1126559918935
242	7755949	135	1.787656883141
242	7762850	136	1.0180109831613
242	7769751	137	0.43076282413909
242	7775422	138	0.012431930221652
242	7781093	139	0
242	7786764	140	0
242	7792435	141	0
242	7798106	142	0
242	7803777	143	0
242	7809448	144	0
242	7815119	145	0
242	7820790	146	0
242	7826461	147	0
242	7832132	148	0
242	7837803	149	0
242	7843474	150	0
236	1790127	49	66.016237734029
236	1899057	50	66.016237734029
236	2003552	51	69.183331089949
236	2112536	52	74.381359754108
236	2221780	53	81.535016413445
236	2330759	54	89.78381756513
236	2439746	55	98.040611865893
236	2548994	56	105.52521493146
236	2657977	57	110.44273673764
236	2767219	58	114.85590293041
236	2876205	59	121.51235029617
236	2985596	60	128.76359572367
236	3094587	61	133.8193407984
236	3203577	62	138.33626505272
236	3307708	63	142.33545197124
236	3411432	64	147.409885152
236	3515304	65	149.17665273544
236	3619126	66	149.30129113197
236	3723198	67	149.42591252975
236	3827214	68	149.5502583985
236	3925984	69	149.67497758966
236	4024983	70	149.79972466387
236	4123732	71	149.92450831327
236	4222591	72	150.04913172295
236	4321770	73	150.16926763764
236	4421307	74	150.28010467382
236	4520490	75	150.38727973809
236	4619777	76	150.49415118661
236	4719061	77	150.60092053188
236	4813103	78	150.70801822631
236	4902558	79	150.81486393663
236	4992115	80	150.92185465243
236	5081671	81	151.02886760839
236	5171489	82	151.13545280817
236	5261144	83	151.24238542985
236	5350697	84	151.3495061194
236	5440488	85	151.45656906624
236	5530145	86	151.5581155451
236	5614930	87	151.65596819278
236	5699804	88	151.73952220672
236	5784479	89	151.80738890815
236	5869053	90	151.8846782497
236	5953509	91	151.94217592289
236	6038166	92	152.05978977521
236	6123154	93	157.39487493481
236	6207903	94	166.20546115366
236	6292639	95	176.93626703207
236	6372615	96	188.14396482817
236	6452790	97	197.2857623882
236	6529441	98	204.6019534629
236	6601156	99	210.44220375234
236	6672761	100	215.08601567671
236	6740476	101	218.83754336543
236	6807790	102	221.82031085037
236	6867677	103	224.21938842548
236	6927574	104	226.10200611835
236	6979943	105	227.53990832674
236	7029535	106	228.60519289826
236	7078953	107	229.33843424148
236	7124658	108	229.84231091386
236	7170439	109	230.08132270898
236	7216156	110	230.08132270898
236	7255446	111	230.08132270898
236	7294798	112	230.40332534489
236	7334150	113	230.83817239101
236	7370321	114	231.27298552049
236	7406492	115	231.79216038193
236	7440033	116	233.2998578604
236	7470691	117	235.57516420545
236	7499042	118	238.77739012627
236	7524843	119	243.18325723308
236	7548214	120	248.9904686265
236	7571585	121	256.39123222673
236	7594956	122	265.55276065687
236	7616017	123	276.15166134619
236	7637078	124	287.43908724284
236	7653879	125	299.22757310886
236	7668730	126	311.72764151973
236	7683581	127	324.49752047273
236	7696602	128	337.48263758881
236	7706323	129	350.65515633766
236	7716044	130	363.83545869568
236	7724295	131	375.33129055613
236	7732546	132	384.49933324269
236	7740797	133	391.63879522161
236	7749048	134	396.98419701597
236	7755949	135	400.71233254217
236	7762850	136	403.06273241315
236	7769751	137	404.41440226611
236	7775422	138	405.06281862778
236	7781093	139	405.44334442263
236	7786764	140	405.44340165553
236	7792435	141	405.44340165553
236	7798106	142	405.44340165553
236	7803777	143	405.44340165553
236	7809448	144	405.44340165553
236	7815119	145	405.44340165553
236	7820790	146	405.44340165553
236	7826461	147	405.44340165553
236	7832132	148	405.44340165553
236	7837803	149	405.44340165553
236	7843474	150	405.44340165553
235	1790127	49	245.99303174216
235	1899057	50	245.99303174216
235	2003552	51	245.90213758307
235	2112536	52	245.75295649136
235	2221780	53	245.54764975316
235	2330759	54	245.31091285912
235	2439746	55	245.07394656528
235	2548994	56	244.85914181363
235	2657977	57	244.71801114296
235	2767219	58	244.59135525222
235	2876205	59	244.3772735445
235	2985596	60	244.11907056032
235	3094587	61	243.9240562855
235	3203577	62	243.74982584175
235	3307708	63	243.59556597989
235	3411432	64	243.98192708611
235	3515304	65	250.88402146052
235	3619126	66	259.14713625439
235	3723198	67	267.4091240879
235	3827214	68	275.65284525407
235	3925984	69	283.92131646591
235	4024983	70	292.19163623206
235	4123732	71	300.46438081289
235	4222591	72	308.72650202814
235	4321770	73	317.00201027072
235	4421307	74	325.24685890273
235	4520490	75	333.5280785334
235	4619777	76	341.78583833545
235	4719061	77	350.03570880719
235	4813103	78	358.31095021286
235	4902558	79	366.566721271
235	4992115	80	374.83369663538
235	5081671	81	383.10239045623
235	5171489	82	391.33803234529
235	5261144	83	399.60051888401
235	5350697	84	407.8775370804
235	5440488	85	416.15009360448
235	5530145	86	423.99640281758
235	5614930	87	431.55729650507
235	5699804	88	438.01336112372
235	5784479	89	443.25729602563
235	5869053	90	449.22930095885
235	5953509	91	453.67204016457
235	6038166	92	458.50653731756
235	6123154	93	460.75645104869
235	6207903	94	459.64270522173
235	6292639	95	458.28622450975
235	6372615	96	456.86945991087
235	6452790	97	455.71384567244
235	6529441	98	454.78900627171
235	6601156	99	454.08540053631
235	6672761	100	453.55843017119
235	6740476	101	453.14761899196
235	6807790	102	452.82099092747
235	6867677	103	452.55827984828
235	6927574	104	452.35212372773
235	6979943	105	452.19466619287
235	7029535	106	452.0780121662
235	7078953	107	451.99771854561
235	7124658	108	451.94254151184
235	7170439	109	451.91636851632
235	7216156	110	451.91636851632
235	7255446	111	451.91636851632
235	7294798	112	451.88110760568
235	7334150	113	451.83348966371
235	7370321	114	451.78587543578
235	7406492	115	451.72902317324
235	7440033	116	451.56392270473
235	7470691	117	451.3147651987
235	7499042	118	450.96459614679
235	7524843	119	450.48283649329
235	7548214	120	449.84784681228
235	7571585	121	449.03861012374
235	7594956	122	448.03684255903
235	7616017	123	446.92389550157
235	7637078	124	445.86727894488
235	7653879	125	444.82011264416
235	7668730	126	443.71022082205
235	7683581	127	442.57776947966
235	7696602	128	441.42623050554
235	7706323	129	440.25807248347
235	7716044	130	439.0995545034
235	7724295	131	438.07942028889
235	7732546	132	437.34412546878
235	7740797	133	436.80925417878
235	7749048	134	436.40878955529
235	7755949	135	436.12948662405
235	7762850	136	435.95340032865
235	7769751	137	435.85213647991
235	7775422	138	435.80355868836
235	7781093	139	435.77505061263
235	7786764	140	435.77504632488
235	7792435	141	435.77504632488
235	7798106	142	435.77504632488
235	7803777	143	435.77504632488
235	7809448	144	435.77504632488
235	7815119	145	435.77504632488
235	7820790	146	435.77504632488
235	7826461	147	435.77504632488
235	7832132	148	435.77504632488
235	7837803	149	435.77504632488
235	7843474	150	435.77504632488

