version 2
run WithBeaconing-0-20200331-22:36:38-9880
attr configname WithBeaconing
attr datetime 20200331-22:36:38
attr experiment WithBeaconing
attr inifile omnetpp.ini
attr iterationvars ""
attr iterationvarsf ""
attr measurement ""
attr network veins_myproject.src.Scenario
attr processid 9880
attr repetition 0
attr replication #0
attr resultdir results
attr runnumber 0
attr seedset 0
param *.rsu[*].appl.sendBeacons true
param *.node[*].appl.sendBeacons true
param **.debug false
param **.coreDebug false
param *.playgroundSizeX 6000m
param *.playgroundSizeY 6000m
param *.playgroundSizeZ 3m
param *.annotations.draw true
param *.manager.updateInterval 1s
param *.manager.host "\"localhost\""
param *.manager.port 9999
param *.manager.moduleType "\"veins_myproject.src.car.MyCar\""
param *.manager.autoShutdown true
param *.manager.launchConfig "xmldoc(\"sumo.launchd.xml\")"
param *.rsu[0].mobility.x 289
param *.rsu[0].mobility.y 432
param *.rsu[0].mobility.z 3
param *.rsu[*].applType "\"veins_myproject.src.MyRSUApp\""
param *.rsu[*].appl.headerLength "80 bit"
param *.rsu[*].appl.sendBeacons true
param *.rsu[*].appl.dataOnSch true
param *.rsu[*].appl.beaconInterval 1s
param *.rsu[*].appl.beaconUserPriority 7
param *.rsu[*].appl.dataUserPriority 5
param *.connectionManager.sendDirect true
param *.connectionManager.maxInterfDist 2600m
param *.connectionManager.drawMaxIntfDist false
param *.**.nic.mac1609_4.useServiceChannel false
param *.**.nic.mac1609_4.txPower 50mW
param *.**.nic.mac1609_4.bitrate 6Mbps
param *.**.nic.phy80211p.sensitivity -89dBm
param *.**.nic.phy80211p.useThermalNoise true
param *.**.nic.phy80211p.thermalNoise -110dBm
param *.**.nic.phy80211p.decider "xmldoc(\"config.xml\")"
param *.**.nic.phy80211p.analogueModels "xmldoc(\"config.xml\")"
param *.**.nic.phy80211p.usePropagationDelay true
param *.node[*].applType "\"veins_myproject.src.MyApplicaton\""
param *.node[*].appl.headerLength "80 bit"
param *.node[*].appl.sendBeacons true
param *.node[*].appl.dataOnSch false
param *.node[*].appl.beaconInterval 0.1s
param *.node[*].veinsmobilityType.debug true
param *.node[*].veinsmobility.x 0
param *.node[*].veinsmobility.y 0
param *.node[*].veinsmobility.z 1.895

scalar Scenario.node[7].appl generatedWSMs 0
scalar Scenario.node[7].appl receivedWSMs 1
scalar Scenario.node[7].appl generatedBSMs 240
scalar Scenario.node[7].appl receivedBSMs 4430
scalar Scenario.node[7].appl generatedWSAs 0
scalar Scenario.node[7].appl receivedWSAs 0
scalar Scenario.node[7].nic.phy80211p busyTime 0.019206333333333
scalar Scenario.node[7].nic.mac1609_4 ReceivedUnicastPackets 0
scalar Scenario.node[7].nic.mac1609_4 ReceivedBroadcasts 4431
scalar Scenario.node[7].nic.mac1609_4 SentPackets 240
scalar Scenario.node[7].nic.mac1609_4 SentAcknowledgements 0
scalar Scenario.node[7].nic.mac1609_4 SNIRLostPackets 0
scalar Scenario.node[7].nic.mac1609_4 RXTXLostPackets 0
scalar Scenario.node[7].nic.mac1609_4 TotalLostPackets 0
scalar Scenario.node[7].nic.mac1609_4 DroppedPacketsInMac 0
scalar Scenario.node[7].nic.mac1609_4 TooLittleTime 0
scalar Scenario.node[7].nic.mac1609_4 TimesIntoBackoff 240
scalar Scenario.node[7].nic.mac1609_4 SlotsBackoff 386
scalar Scenario.node[7].nic.mac1609_4 NumInternalContention 0
scalar Scenario.node[7].nic.mac1609_4 totalBusyTime 0.486152
scalar Scenario.node[7].veinsmobility startTime 8
scalar Scenario.node[7].veinsmobility totalTime 23
scalar Scenario.node[7].veinsmobility stopTime 32
scalar Scenario.node[7].veinsmobility minSpeed 3.3935298201721
scalar Scenario.node[7].veinsmobility maxSpeed 8.3210455401707
scalar Scenario.node[7].veinsmobility totalDistance 133.37354822981
scalar Scenario.node[7].veinsmobility totalCO2Emission 58.952075701806
scalar Scenario.node[31].appl generatedWSMs 0
scalar Scenario.node[31].appl receivedWSMs 4
scalar Scenario.node[31].appl generatedBSMs 80
scalar Scenario.node[31].appl receivedBSMs 2618
scalar Scenario.node[31].appl generatedWSAs 0
scalar Scenario.node[31].appl receivedWSAs 0
scalar Scenario.node[31].nic.phy80211p busyTime 0.034435999999999
scalar Scenario.node[31].nic.mac1609_4 ReceivedUnicastPackets 0
scalar Scenario.node[31].nic.mac1609_4 ReceivedBroadcasts 2622
scalar Scenario.node[31].nic.mac1609_4 SentPackets 80
scalar Scenario.node[31].nic.mac1609_4 SentAcknowledgements 0
scalar Scenario.node[31].nic.mac1609_4 SNIRLostPackets 22
scalar Scenario.node[31].nic.mac1609_4 RXTXLostPackets 0
scalar Scenario.node[31].nic.mac1609_4 TotalLostPackets 22
scalar Scenario.node[31].nic.mac1609_4 DroppedPacketsInMac 0
scalar Scenario.node[31].nic.mac1609_4 TooLittleTime 0
scalar Scenario.node[31].nic.mac1609_4 TimesIntoBackoff 80
scalar Scenario.node[31].nic.mac1609_4 SlotsBackoff 127
scalar Scenario.node[31].nic.mac1609_4 NumInternalContention 0
scalar Scenario.node[31].nic.mac1609_4 totalBusyTime 0.282744
scalar Scenario.node[31].veinsmobility startTime 32
scalar Scenario.node[31].veinsmobility totalTime 7
scalar Scenario.node[31].veinsmobility stopTime 40
scalar Scenario.node[31].veinsmobility minSpeed 3.6011715425988
scalar Scenario.node[31].veinsmobility maxSpeed 8.2793484889599
scalar Scenario.node[31].veinsmobility totalDistance 39.290786103052
scalar Scenario.node[31].veinsmobility totalCO2Emission 18.732841539957
scalar Scenario.node[13].appl generatedWSMs 1
scalar Scenario.node[13].appl receivedWSMs 10
scalar Scenario.node[13].appl generatedBSMs 460
scalar Scenario.node[13].appl receivedBSMs 15642
scalar Scenario.node[13].appl generatedWSAs 0
scalar Scenario.node[13].appl receivedWSAs 0
scalar Scenario.node[13].nic.phy80211p busyTime 0.035717043478274
scalar Scenario.node[13].nic.mac1609_4 ReceivedUnicastPackets 0
scalar Scenario.node[13].nic.mac1609_4 ReceivedBroadcasts 15652
scalar Scenario.node[13].nic.mac1609_4 SentPackets 461
scalar Scenario.node[13].nic.mac1609_4 SentAcknowledgements 0
scalar Scenario.node[13].nic.mac1609_4 SNIRLostPackets 125
scalar Scenario.node[13].nic.mac1609_4 RXTXLostPackets 0
scalar Scenario.node[13].nic.mac1609_4 TotalLostPackets 125
scalar Scenario.node[13].nic.mac1609_4 DroppedPacketsInMac 0
scalar Scenario.node[13].nic.mac1609_4 TooLittleTime 0
scalar Scenario.node[13].nic.mac1609_4 TimesIntoBackoff 461
scalar Scenario.node[13].nic.mac1609_4 SlotsBackoff 677
scalar Scenario.node[13].nic.mac1609_4 NumInternalContention 0
scalar Scenario.node[13].nic.mac1609_4 totalBusyTime 1.681517
scalar Scenario.node[13].veinsmobility startTime 14
scalar Scenario.node[13].veinsmobility totalTime 45
scalar Scenario.node[13].veinsmobility stopTime 60
scalar Scenario.node[13].veinsmobility minSpeed 0
scalar Scenario.node[13].veinsmobility maxSpeed 8.3248281713156
scalar Scenario.node[13].veinsmobility totalDistance 290.49870494048
scalar Scenario.node[13].veinsmobility totalCO2Emission 95.812422176694
scalar Scenario.node[40].appl generatedWSMs 0
scalar Scenario.node[40].appl receivedWSMs 6
scalar Scenario.node[40].appl generatedBSMs 190
scalar Scenario.node[40].appl receivedBSMs 8991
scalar Scenario.node[40].appl generatedWSAs 0
scalar Scenario.node[40].appl receivedWSAs 0
scalar Scenario.node[40].nic.phy80211p busyTime 0.049871999999997
scalar Scenario.node[40].nic.mac1609_4 ReceivedUnicastPackets 0
scalar Scenario.node[40].nic.mac1609_4 ReceivedBroadcasts 8997
scalar Scenario.node[40].nic.mac1609_4 SentPackets 190
scalar Scenario.node[40].nic.mac1609_4 SentAcknowledgements 0
scalar Scenario.node[40].nic.mac1609_4 SNIRLostPackets 97
scalar Scenario.node[40].nic.mac1609_4 RXTXLostPackets 0
scalar Scenario.node[40].nic.mac1609_4 TotalLostPackets 97
scalar Scenario.node[40].nic.mac1609_4 DroppedPacketsInMac 0
scalar Scenario.node[40].nic.mac1609_4 TooLittleTime 0
scalar Scenario.node[40].nic.mac1609_4 TimesIntoBackoff 380
scalar Scenario.node[40].nic.mac1609_4 SlotsBackoff 585
scalar Scenario.node[40].nic.mac1609_4 NumInternalContention 0
scalar Scenario.node[40].nic.mac1609_4 totalBusyTime 0.959286
scalar Scenario.node[40].veinsmobility startTime 42
scalar Scenario.node[40].veinsmobility totalTime 18
scalar Scenario.node[40].veinsmobility stopTime 61
scalar Scenario.node[40].veinsmobility minSpeed 3.9564962856085
scalar Scenario.node[40].veinsmobility maxSpeed 8.3108163541975
scalar Scenario.node[40].veinsmobility totalDistance 116.66260749734
scalar Scenario.node[40].veinsmobility totalCO2Emission 41.142060690767
scalar Scenario.node[28].appl generatedWSMs 1
scalar Scenario.node[28].appl receivedWSMs 13
scalar Scenario.node[28].appl generatedBSMs 340
scalar Scenario.node[28].appl receivedBSMs 14309
scalar Scenario.node[28].appl generatedWSAs 0
scalar Scenario.node[28].appl receivedWSAs 0
scalar Scenario.node[28].nic.phy80211p busyTime 0.044367058823543
scalar Scenario.node[28].nic.mac1609_4 ReceivedUnicastPackets 0
scalar Scenario.node[28].nic.mac1609_4 ReceivedBroadcasts 14322
scalar Scenario.node[28].nic.mac1609_4 SentPackets 341
scalar Scenario.node[28].nic.mac1609_4 SentAcknowledgements 0
scalar Scenario.node[28].nic.mac1609_4 SNIRLostPackets 158
scalar Scenario.node[28].nic.mac1609_4 RXTXLostPackets 0
scalar Scenario.node[28].nic.mac1609_4 TotalLostPackets 158
scalar Scenario.node[28].nic.mac1609_4 DroppedPacketsInMac 0
scalar Scenario.node[28].nic.mac1609_4 TooLittleTime 0
scalar Scenario.node[28].nic.mac1609_4 TimesIntoBackoff 341
scalar Scenario.node[28].nic.mac1609_4 SlotsBackoff 515
scalar Scenario.node[28].nic.mac1609_4 NumInternalContention 0
scalar Scenario.node[28].nic.mac1609_4 totalBusyTime 1.533373
scalar Scenario.node[28].veinsmobility startTime 29
scalar Scenario.node[28].veinsmobility totalTime 33
scalar Scenario.node[28].veinsmobility stopTime 63
scalar Scenario.node[28].veinsmobility minSpeed 0
scalar Scenario.node[28].veinsmobility maxSpeed 8.3258485228126
scalar Scenario.node[28].veinsmobility totalDistance 124.03445684194
scalar Scenario.node[28].veinsmobility totalCO2Emission 62.757629591773
scalar Scenario.node[19].appl generatedWSMs 1
scalar Scenario.node[19].appl receivedWSMs 13
scalar Scenario.node[19].appl generatedBSMs 440
scalar Scenario.node[19].appl receivedBSMs 16884
scalar Scenario.node[19].appl generatedWSAs 0
scalar Scenario.node[19].appl receivedWSAs 0
scalar Scenario.node[19].nic.phy80211p busyTime 0.04047636363638
scalar Scenario.node[19].nic.mac1609_4 ReceivedUnicastPackets 0
scalar Scenario.node[19].nic.mac1609_4 ReceivedBroadcasts 16897
scalar Scenario.node[19].nic.mac1609_4 SentPackets 441
scalar Scenario.node[19].nic.mac1609_4 SentAcknowledgements 0
scalar Scenario.node[19].nic.mac1609_4 SNIRLostPackets 203
scalar Scenario.node[19].nic.mac1609_4 RXTXLostPackets 0
scalar Scenario.node[19].nic.mac1609_4 TotalLostPackets 203
scalar Scenario.node[19].nic.mac1609_4 DroppedPacketsInMac 0
scalar Scenario.node[19].nic.mac1609_4 TooLittleTime 0
scalar Scenario.node[19].nic.mac1609_4 TimesIntoBackoff 441
scalar Scenario.node[19].nic.mac1609_4 SlotsBackoff 653
scalar Scenario.node[19].nic.mac1609_4 NumInternalContention 0
scalar Scenario.node[19].nic.mac1609_4 totalBusyTime 1.815937054206
scalar Scenario.node[19].veinsmobility startTime 20
scalar Scenario.node[19].veinsmobility totalTime 43
scalar Scenario.node[19].veinsmobility stopTime 64
scalar Scenario.node[19].veinsmobility minSpeed 0
scalar Scenario.node[19].veinsmobility maxSpeed 11.923404130571
scalar Scenario.node[19].veinsmobility totalDistance 228.49644522926
scalar Scenario.node[19].veinsmobility totalCO2Emission 99.590802893064
scalar Scenario.node[22].appl generatedWSMs 1
scalar Scenario.node[22].appl receivedWSMs 15
scalar Scenario.node[22].appl generatedBSMs 430
scalar Scenario.node[22].appl receivedBSMs 17415
scalar Scenario.node[22].appl generatedWSAs 0
scalar Scenario.node[22].appl receivedWSAs 0
scalar Scenario.node[22].nic.phy80211p busyTime 0.042734511627925
scalar Scenario.node[22].nic.mac1609_4 ReceivedUnicastPackets 0
scalar Scenario.node[22].nic.mac1609_4 ReceivedBroadcasts 17430
scalar Scenario.node[22].nic.mac1609_4 SentPackets 431
scalar Scenario.node[22].nic.mac1609_4 SentAcknowledgements 0
scalar Scenario.node[22].nic.mac1609_4 SNIRLostPackets 212
scalar Scenario.node[22].nic.mac1609_4 RXTXLostPackets 0
scalar Scenario.node[22].nic.mac1609_4 TotalLostPackets 212
scalar Scenario.node[22].nic.mac1609_4 DroppedPacketsInMac 0
scalar Scenario.node[22].nic.mac1609_4 TooLittleTime 0
scalar Scenario.node[22].nic.mac1609_4 TimesIntoBackoff 431
scalar Scenario.node[22].nic.mac1609_4 SlotsBackoff 618
scalar Scenario.node[22].nic.mac1609_4 NumInternalContention 0
scalar Scenario.node[22].nic.mac1609_4 totalBusyTime 1.870887010787
scalar Scenario.node[22].veinsmobility startTime 23
scalar Scenario.node[22].veinsmobility totalTime 42
scalar Scenario.node[22].veinsmobility stopTime 66
scalar Scenario.node[22].veinsmobility minSpeed 0
scalar Scenario.node[22].veinsmobility maxSpeed 22.216708199775
scalar Scenario.node[22].veinsmobility totalDistance 371.77070909295
scalar Scenario.node[22].veinsmobility totalCO2Emission 147.23481590078
scalar Scenario.node[2].appl generatedWSMs 0
scalar Scenario.node[2].appl receivedWSMs 15
scalar Scenario.node[2].appl generatedBSMs 630
scalar Scenario.node[2].appl receivedBSMs 19756
scalar Scenario.node[2].appl generatedWSAs 0
scalar Scenario.node[2].appl receivedWSAs 0
scalar Scenario.node[2].nic.phy80211p busyTime 0.032952000000014
scalar Scenario.node[2].nic.mac1609_4 ReceivedUnicastPackets 0
scalar Scenario.node[2].nic.mac1609_4 ReceivedBroadcasts 19771
scalar Scenario.node[2].nic.mac1609_4 SentPackets 630
scalar Scenario.node[2].nic.mac1609_4 SentAcknowledgements 0
scalar Scenario.node[2].nic.mac1609_4 SNIRLostPackets 162
scalar Scenario.node[2].nic.mac1609_4 RXTXLostPackets 0
scalar Scenario.node[2].nic.mac1609_4 TotalLostPackets 162
scalar Scenario.node[2].nic.mac1609_4 DroppedPacketsInMac 0
scalar Scenario.node[2].nic.mac1609_4 TooLittleTime 0
scalar Scenario.node[2].nic.mac1609_4 TimesIntoBackoff 630
scalar Scenario.node[2].nic.mac1609_4 SlotsBackoff 1019
scalar Scenario.node[2].nic.mac1609_4 NumInternalContention 0
scalar Scenario.node[2].nic.mac1609_4 totalBusyTime 2.130046
scalar Scenario.node[2].veinsmobility startTime 3
scalar Scenario.node[2].veinsmobility totalTime 62
scalar Scenario.node[2].veinsmobility stopTime 66
scalar Scenario.node[2].veinsmobility minSpeed 3.8322296998849
scalar Scenario.node[2].veinsmobility maxSpeed 8.3275921667647
scalar Scenario.node[2].veinsmobility totalDistance 471.48357995415
scalar Scenario.node[2].veinsmobility totalCO2Emission 119.43836550748
scalar Scenario.node[15].appl generatedWSMs 1
scalar Scenario.node[15].appl receivedWSMs 16
scalar Scenario.node[15].appl generatedBSMs 500
scalar Scenario.node[15].appl receivedBSMs 18686
scalar Scenario.node[15].appl generatedWSAs 0
scalar Scenario.node[15].appl receivedWSAs 0
scalar Scenario.node[15].nic.phy80211p busyTime 0.039347040000018
scalar Scenario.node[15].nic.mac1609_4 ReceivedUnicastPackets 0
scalar Scenario.node[15].nic.mac1609_4 ReceivedBroadcasts 18702
scalar Scenario.node[15].nic.mac1609_4 SentPackets 501
scalar Scenario.node[15].nic.mac1609_4 SentAcknowledgements 0
scalar Scenario.node[15].nic.mac1609_4 SNIRLostPackets 189
scalar Scenario.node[15].nic.mac1609_4 RXTXLostPackets 1
scalar Scenario.node[15].nic.mac1609_4 TotalLostPackets 190
scalar Scenario.node[15].nic.mac1609_4 DroppedPacketsInMac 0
scalar Scenario.node[15].nic.mac1609_4 TooLittleTime 0
scalar Scenario.node[15].nic.mac1609_4 TimesIntoBackoff 501
scalar Scenario.node[15].nic.mac1609_4 SlotsBackoff 740
scalar Scenario.node[15].nic.mac1609_4 NumInternalContention 0
scalar Scenario.node[15].nic.mac1609_4 totalBusyTime 2.008237
scalar Scenario.node[15].veinsmobility startTime 16
scalar Scenario.node[15].veinsmobility totalTime 49
scalar Scenario.node[15].veinsmobility stopTime 66
scalar Scenario.node[15].veinsmobility minSpeed 0
scalar Scenario.node[15].veinsmobility maxSpeed 8.3289842515974
scalar Scenario.node[15].veinsmobility totalDistance 309.64947235043
scalar Scenario.node[15].veinsmobility totalCO2Emission 89.676535224264
scalar Scenario.node[23].appl generatedWSMs 0
scalar Scenario.node[23].appl receivedWSMs 17
scalar Scenario.node[23].appl generatedBSMs 440
scalar Scenario.node[23].appl receivedBSMs 18334
scalar Scenario.node[23].appl generatedWSAs 0
scalar Scenario.node[23].appl receivedWSAs 0
scalar Scenario.node[23].nic.phy80211p busyTime 0.043877454545474
scalar Scenario.node[23].nic.mac1609_4 ReceivedUnicastPackets 0
scalar Scenario.node[23].nic.mac1609_4 ReceivedBroadcasts 18351
scalar Scenario.node[23].nic.mac1609_4 SentPackets 440
scalar Scenario.node[23].nic.mac1609_4 SentAcknowledgements 0
scalar Scenario.node[23].nic.mac1609_4 SNIRLostPackets 183
scalar Scenario.node[23].nic.mac1609_4 RXTXLostPackets 0
scalar Scenario.node[23].nic.mac1609_4 TotalLostPackets 183
scalar Scenario.node[23].nic.mac1609_4 DroppedPacketsInMac 0
scalar Scenario.node[23].nic.mac1609_4 TooLittleTime 0
scalar Scenario.node[23].nic.mac1609_4 TimesIntoBackoff 440
scalar Scenario.node[23].nic.mac1609_4 SlotsBackoff 682
scalar Scenario.node[23].nic.mac1609_4 NumInternalContention 0
scalar Scenario.node[23].nic.mac1609_4 totalBusyTime 1.963688
scalar Scenario.node[23].veinsmobility startTime 24
scalar Scenario.node[23].veinsmobility totalTime 43
scalar Scenario.node[23].veinsmobility stopTime 68
scalar Scenario.node[23].veinsmobility minSpeed 3.3732389455697
scalar Scenario.node[23].veinsmobility maxSpeed 10.208698570165
scalar Scenario.node[23].veinsmobility totalDistance 307.18423940437
scalar Scenario.node[23].veinsmobility totalCO2Emission 93.481674023534
scalar Scenario.node[11].appl generatedWSMs 0
scalar Scenario.node[11].appl receivedWSMs 16
scalar Scenario.node[11].appl generatedBSMs 560
scalar Scenario.node[11].appl receivedBSMs 20365
scalar Scenario.node[11].appl generatedWSAs 0
scalar Scenario.node[11].appl receivedWSAs 0
scalar Scenario.node[11].nic.phy80211p busyTime 0.037920142857157
scalar Scenario.node[11].nic.mac1609_4 ReceivedUnicastPackets 0
scalar Scenario.node[11].nic.mac1609_4 ReceivedBroadcasts 20381
scalar Scenario.node[11].nic.mac1609_4 SentPackets 560
scalar Scenario.node[11].nic.mac1609_4 SentAcknowledgements 0
scalar Scenario.node[11].nic.mac1609_4 SNIRLostPackets 8
scalar Scenario.node[11].nic.mac1609_4 RXTXLostPackets 115
scalar Scenario.node[11].nic.mac1609_4 TotalLostPackets 123
scalar Scenario.node[11].nic.mac1609_4 DroppedPacketsInMac 0
scalar Scenario.node[11].nic.mac1609_4 TooLittleTime 0
scalar Scenario.node[11].nic.mac1609_4 TimesIntoBackoff 737
scalar Scenario.node[11].nic.mac1609_4 SlotsBackoff 1052
scalar Scenario.node[11].nic.mac1609_4 NumInternalContention 0
scalar Scenario.node[11].nic.mac1609_4 totalBusyTime 2.181168
scalar Scenario.node[11].veinsmobility startTime 12
scalar Scenario.node[11].veinsmobility totalTime 55
scalar Scenario.node[11].veinsmobility stopTime 68
scalar Scenario.node[11].veinsmobility minSpeed 3.7018181233184
scalar Scenario.node[11].veinsmobility maxSpeed 8.3299067951017
scalar Scenario.node[11].veinsmobility totalDistance 409.01659600925
scalar Scenario.node[11].veinsmobility totalCO2Emission 107.56561118953
scalar Scenario.node[9].appl generatedWSMs 0
scalar Scenario.node[9].appl receivedWSMs 18
scalar Scenario.node[9].appl generatedBSMs 600
scalar Scenario.node[9].appl receivedBSMs 21603
scalar Scenario.node[9].appl generatedWSAs 0
scalar Scenario.node[9].appl receivedWSAs 0
scalar Scenario.node[9].nic.phy80211p busyTime 0.037866000000011
scalar Scenario.node[9].nic.mac1609_4 ReceivedUnicastPackets 0
scalar Scenario.node[9].nic.mac1609_4 ReceivedBroadcasts 21621
scalar Scenario.node[9].nic.mac1609_4 SentPackets 600
scalar Scenario.node[9].nic.mac1609_4 SentAcknowledgements 0
scalar Scenario.node[9].nic.mac1609_4 SNIRLostPackets 194
scalar Scenario.node[9].nic.mac1609_4 RXTXLostPackets 0
scalar Scenario.node[9].nic.mac1609_4 TotalLostPackets 194
scalar Scenario.node[9].nic.mac1609_4 DroppedPacketsInMac 0
scalar Scenario.node[9].nic.mac1609_4 TooLittleTime 0
scalar Scenario.node[9].nic.mac1609_4 TimesIntoBackoff 600
scalar Scenario.node[9].nic.mac1609_4 SlotsBackoff 903
scalar Scenario.node[9].nic.mac1609_4 NumInternalContention 0
scalar Scenario.node[9].nic.mac1609_4 totalBusyTime 2.32184
scalar Scenario.node[9].veinsmobility startTime 10
scalar Scenario.node[9].veinsmobility totalTime 59
scalar Scenario.node[9].veinsmobility stopTime 70
scalar Scenario.node[9].veinsmobility minSpeed 3.4372336163316
scalar Scenario.node[9].veinsmobility maxSpeed 11.715525032294
scalar Scenario.node[9].veinsmobility totalDistance 443.86745969399
scalar Scenario.node[9].veinsmobility totalCO2Emission 140.22327904
scalar Scenario.node[30].appl generatedWSMs 1
scalar Scenario.node[30].appl receivedWSMs 17
scalar Scenario.node[30].appl generatedBSMs 410
scalar Scenario.node[30].appl receivedBSMs 18735
scalar Scenario.node[30].appl generatedWSAs 0
scalar Scenario.node[30].appl receivedWSAs 0
scalar Scenario.node[30].nic.phy80211p busyTime 0.048209756097583
scalar Scenario.node[30].nic.mac1609_4 ReceivedUnicastPackets 0
scalar Scenario.node[30].nic.mac1609_4 ReceivedBroadcasts 18752
scalar Scenario.node[30].nic.mac1609_4 SentPackets 411
scalar Scenario.node[30].nic.mac1609_4 SentAcknowledgements 0
scalar Scenario.node[30].nic.mac1609_4 SNIRLostPackets 223
scalar Scenario.node[30].nic.mac1609_4 RXTXLostPackets 1
scalar Scenario.node[30].nic.mac1609_4 TotalLostPackets 224
scalar Scenario.node[30].nic.mac1609_4 DroppedPacketsInMac 0
scalar Scenario.node[30].nic.mac1609_4 TooLittleTime 0
scalar Scenario.node[30].nic.mac1609_4 TimesIntoBackoff 411
scalar Scenario.node[30].nic.mac1609_4 SlotsBackoff 596
scalar Scenario.node[30].nic.mac1609_4 NumInternalContention 0
scalar Scenario.node[30].nic.mac1609_4 totalBusyTime 2.006763079619
scalar Scenario.node[30].veinsmobility startTime 31
scalar Scenario.node[30].veinsmobility totalTime 40
scalar Scenario.node[30].veinsmobility stopTime 72
scalar Scenario.node[30].veinsmobility minSpeed 0
scalar Scenario.node[30].veinsmobility maxSpeed 12.509748301526
scalar Scenario.node[30].veinsmobility totalDistance 190.16726482454
scalar Scenario.node[30].veinsmobility totalCO2Emission 92.092776088727
scalar Scenario.node[20].appl generatedWSMs 1
scalar Scenario.node[20].appl receivedWSMs 17
scalar Scenario.node[20].appl generatedBSMs 510
scalar Scenario.node[20].appl receivedBSMs 21168
scalar Scenario.node[20].appl generatedWSAs 0
scalar Scenario.node[20].appl receivedWSAs 0
scalar Scenario.node[20].nic.phy80211p busyTime 0.043737098039229
scalar Scenario.node[20].nic.mac1609_4 ReceivedUnicastPackets 0
scalar Scenario.node[20].nic.mac1609_4 ReceivedBroadcasts 21185
scalar Scenario.node[20].nic.mac1609_4 SentPackets 511
scalar Scenario.node[20].nic.mac1609_4 SentAcknowledgements 0
scalar Scenario.node[20].nic.mac1609_4 SNIRLostPackets 231
scalar Scenario.node[20].nic.mac1609_4 RXTXLostPackets 0
scalar Scenario.node[20].nic.mac1609_4 TotalLostPackets 231
scalar Scenario.node[20].nic.mac1609_4 DroppedPacketsInMac 0
scalar Scenario.node[20].nic.mac1609_4 TooLittleTime 0
scalar Scenario.node[20].nic.mac1609_4 TimesIntoBackoff 511
scalar Scenario.node[20].nic.mac1609_4 SlotsBackoff 788
scalar Scenario.node[20].nic.mac1609_4 NumInternalContention 0
scalar Scenario.node[20].nic.mac1609_4 totalBusyTime 2.271023
scalar Scenario.node[20].veinsmobility startTime 21
scalar Scenario.node[20].veinsmobility totalTime 50
scalar Scenario.node[20].veinsmobility stopTime 72
scalar Scenario.node[20].veinsmobility minSpeed 0
scalar Scenario.node[20].veinsmobility maxSpeed 8.3184059934132
scalar Scenario.node[20].veinsmobility totalDistance 198.77239082553
scalar Scenario.node[20].veinsmobility totalCO2Emission 79.186632049978
scalar Scenario.node[21].appl generatedWSMs 1
scalar Scenario.node[21].appl receivedWSMs 18
scalar Scenario.node[21].appl generatedBSMs 510
scalar Scenario.node[21].appl receivedBSMs 21862
scalar Scenario.node[21].appl generatedWSAs 0
scalar Scenario.node[21].appl receivedWSAs 0
scalar Scenario.node[21].nic.phy80211p busyTime 0.045169098039227
scalar Scenario.node[21].nic.mac1609_4 ReceivedUnicastPackets 0
scalar Scenario.node[21].nic.mac1609_4 ReceivedBroadcasts 21880
scalar Scenario.node[21].nic.mac1609_4 SentPackets 511
scalar Scenario.node[21].nic.mac1609_4 SentAcknowledgements 0
scalar Scenario.node[21].nic.mac1609_4 SNIRLostPackets 237
scalar Scenario.node[21].nic.mac1609_4 RXTXLostPackets 0
scalar Scenario.node[21].nic.mac1609_4 TotalLostPackets 237
scalar Scenario.node[21].nic.mac1609_4 DroppedPacketsInMac 0
scalar Scenario.node[21].nic.mac1609_4 TooLittleTime 0
scalar Scenario.node[21].nic.mac1609_4 TimesIntoBackoff 511
scalar Scenario.node[21].nic.mac1609_4 SlotsBackoff 725
scalar Scenario.node[21].nic.mac1609_4 NumInternalContention 0
scalar Scenario.node[21].nic.mac1609_4 totalBusyTime 2.344055
scalar Scenario.node[21].veinsmobility startTime 23
scalar Scenario.node[21].veinsmobility totalTime 50
scalar Scenario.node[21].veinsmobility stopTime 74
scalar Scenario.node[21].veinsmobility minSpeed 0
scalar Scenario.node[21].veinsmobility maxSpeed 8.328631989595
scalar Scenario.node[21].veinsmobility totalDistance 198.51930976961
scalar Scenario.node[21].veinsmobility totalCO2Emission 79.719755499195
scalar Scenario.node[8].appl generatedWSMs 0
scalar Scenario.node[8].appl receivedWSMs 22
scalar Scenario.node[8].appl generatedBSMs 690
scalar Scenario.node[8].appl receivedBSMs 26075
scalar Scenario.node[8].appl generatedWSAs 0
scalar Scenario.node[8].appl receivedWSAs 0
scalar Scenario.node[8].nic.phy80211p busyTime 0.039696231884059
scalar Scenario.node[8].nic.mac1609_4 ReceivedUnicastPackets 0
scalar Scenario.node[8].nic.mac1609_4 ReceivedBroadcasts 26097
scalar Scenario.node[8].nic.mac1609_4 SentPackets 690
scalar Scenario.node[8].nic.mac1609_4 SentAcknowledgements 0
scalar Scenario.node[8].nic.mac1609_4 SNIRLostPackets 203
scalar Scenario.node[8].nic.mac1609_4 RXTXLostPackets 0
scalar Scenario.node[8].nic.mac1609_4 TotalLostPackets 203
scalar Scenario.node[8].nic.mac1609_4 DroppedPacketsInMac 0
scalar Scenario.node[8].nic.mac1609_4 TooLittleTime 0
scalar Scenario.node[8].nic.mac1609_4 TimesIntoBackoff 690
scalar Scenario.node[8].nic.mac1609_4 SlotsBackoff 1002
scalar Scenario.node[8].nic.mac1609_4 NumInternalContention 0
scalar Scenario.node[8].nic.mac1609_4 totalBusyTime 2.79813987166
scalar Scenario.node[8].veinsmobility startTime 9
scalar Scenario.node[8].veinsmobility totalTime 68
scalar Scenario.node[8].veinsmobility stopTime 78
scalar Scenario.node[8].veinsmobility minSpeed 3.3158614069545
scalar Scenario.node[8].veinsmobility maxSpeed 8.3280784792197
scalar Scenario.node[8].veinsmobility totalDistance 474.72630381655
scalar Scenario.node[8].veinsmobility totalCO2Emission 150.91349388355
scalar Scenario.node[57].appl generatedWSMs 0
scalar Scenario.node[57].appl receivedWSMs 12
scalar Scenario.node[57].appl generatedBSMs 230
scalar Scenario.node[57].appl receivedBSMs 12627
scalar Scenario.node[57].appl generatedWSAs 0
scalar Scenario.node[57].appl receivedWSAs 0
scalar Scenario.node[57].nic.phy80211p busyTime 0.057617739130447
scalar Scenario.node[57].nic.mac1609_4 ReceivedUnicastPackets 0
scalar Scenario.node[57].nic.mac1609_4 ReceivedBroadcasts 12639
scalar Scenario.node[57].nic.mac1609_4 SentPackets 230
scalar Scenario.node[57].nic.mac1609_4 SentAcknowledgements 0
scalar Scenario.node[57].nic.mac1609_4 SNIRLostPackets 80
scalar Scenario.node[57].nic.mac1609_4 RXTXLostPackets 0
scalar Scenario.node[57].nic.mac1609_4 TotalLostPackets 80
scalar Scenario.node[57].nic.mac1609_4 DroppedPacketsInMac 0
scalar Scenario.node[57].nic.mac1609_4 TooLittleTime 0
scalar Scenario.node[57].nic.mac1609_4 TimesIntoBackoff 230
scalar Scenario.node[57].nic.mac1609_4 SlotsBackoff 324
scalar Scenario.node[57].nic.mac1609_4 NumInternalContention 0
scalar Scenario.node[57].nic.mac1609_4 totalBusyTime 1.344062
scalar Scenario.node[57].veinsmobility startTime 58
scalar Scenario.node[57].veinsmobility totalTime 22
scalar Scenario.node[57].veinsmobility stopTime 81
scalar Scenario.node[57].veinsmobility minSpeed 3.945002665998
scalar Scenario.node[57].veinsmobility maxSpeed 8.3290546019282
scalar Scenario.node[57].veinsmobility totalDistance 161.6999814016
scalar Scenario.node[57].veinsmobility totalCO2Emission 43.39831034828
scalar Scenario.node[39].appl generatedWSMs 0
scalar Scenario.node[39].appl receivedWSMs 18
scalar Scenario.node[39].appl generatedBSMs 410
scalar Scenario.node[39].appl receivedBSMs 20669
scalar Scenario.node[39].appl generatedWSAs 0
scalar Scenario.node[39].appl receivedWSAs 0
scalar Scenario.node[39].nic.phy80211p busyTime 0.053077268292701
scalar Scenario.node[39].nic.mac1609_4 ReceivedUnicastPackets 0
scalar Scenario.node[39].nic.mac1609_4 ReceivedBroadcasts 20687
scalar Scenario.node[39].nic.mac1609_4 SentPackets 410
scalar Scenario.node[39].nic.mac1609_4 SentAcknowledgements 0
scalar Scenario.node[39].nic.mac1609_4 SNIRLostPackets 202
scalar Scenario.node[39].nic.mac1609_4 RXTXLostPackets 0
scalar Scenario.node[39].nic.mac1609_4 TotalLostPackets 202
scalar Scenario.node[39].nic.mac1609_4 DroppedPacketsInMac 0
scalar Scenario.node[39].nic.mac1609_4 TooLittleTime 0
scalar Scenario.node[39].nic.mac1609_4 TimesIntoBackoff 410
scalar Scenario.node[39].nic.mac1609_4 SlotsBackoff 592
scalar Scenario.node[39].nic.mac1609_4 NumInternalContention 0
scalar Scenario.node[39].nic.mac1609_4 totalBusyTime 2.206778
scalar Scenario.node[39].veinsmobility startTime 40
scalar Scenario.node[39].veinsmobility totalTime 40
scalar Scenario.node[39].veinsmobility stopTime 81
scalar Scenario.node[39].veinsmobility minSpeed 3.7220486975701
scalar Scenario.node[39].veinsmobility maxSpeed 8.9391249039256
scalar Scenario.node[39].veinsmobility totalDistance 298.57754473524
scalar Scenario.node[39].veinsmobility totalCO2Emission 80.875668769397
scalar Scenario.node[24].appl generatedWSMs 1
scalar Scenario.node[24].appl receivedWSMs 24
scalar Scenario.node[24].appl generatedBSMs 560
scalar Scenario.node[24].appl receivedBSMs 25203
scalar Scenario.node[24].appl generatedWSAs 0
scalar Scenario.node[24].appl receivedWSAs 0
scalar Scenario.node[24].nic.phy80211p busyTime 0.047289571428575
scalar Scenario.node[24].nic.mac1609_4 ReceivedUnicastPackets 0
scalar Scenario.node[24].nic.mac1609_4 ReceivedBroadcasts 25227
scalar Scenario.node[24].nic.mac1609_4 SentPackets 561
scalar Scenario.node[24].nic.mac1609_4 SentAcknowledgements 0
scalar Scenario.node[24].nic.mac1609_4 SNIRLostPackets 196
scalar Scenario.node[24].nic.mac1609_4 RXTXLostPackets 0
scalar Scenario.node[24].nic.mac1609_4 TotalLostPackets 196
scalar Scenario.node[24].nic.mac1609_4 DroppedPacketsInMac 0
scalar Scenario.node[24].nic.mac1609_4 TooLittleTime 0
scalar Scenario.node[24].nic.mac1609_4 TimesIntoBackoff 561
scalar Scenario.node[24].nic.mac1609_4 SlotsBackoff 860
scalar Scenario.node[24].nic.mac1609_4 NumInternalContention 0
scalar Scenario.node[24].nic.mac1609_4 totalBusyTime 2.693665
scalar Scenario.node[24].veinsmobility startTime 25
scalar Scenario.node[24].veinsmobility totalTime 55
scalar Scenario.node[24].veinsmobility stopTime 81
scalar Scenario.node[24].veinsmobility minSpeed 0
scalar Scenario.node[24].veinsmobility maxSpeed 8.2734319055197
scalar Scenario.node[24].veinsmobility totalDistance 230.67963794956
scalar Scenario.node[24].veinsmobility totalCO2Emission 92.582657433774
scalar Scenario.node[36].appl generatedWSMs 0
scalar Scenario.node[36].appl receivedWSMs 21
scalar Scenario.node[36].appl generatedBSMs 440
scalar Scenario.node[36].appl receivedBSMs 21744
scalar Scenario.node[36].appl generatedWSAs 0
scalar Scenario.node[36].appl receivedWSAs 0
scalar Scenario.node[36].nic.phy80211p busyTime 0.051992727272741
scalar Scenario.node[36].nic.mac1609_4 ReceivedUnicastPackets 0
scalar Scenario.node[36].nic.mac1609_4 ReceivedBroadcasts 21765
scalar Scenario.node[36].nic.mac1609_4 SentPackets 440
scalar Scenario.node[36].nic.mac1609_4 SentAcknowledgements 0
scalar Scenario.node[36].nic.mac1609_4 SNIRLostPackets 195
scalar Scenario.node[36].nic.mac1609_4 RXTXLostPackets 0
scalar Scenario.node[36].nic.mac1609_4 TotalLostPackets 195
scalar Scenario.node[36].nic.mac1609_4 DroppedPacketsInMac 0
scalar Scenario.node[36].nic.mac1609_4 TooLittleTime 0
scalar Scenario.node[36].nic.mac1609_4 TimesIntoBackoff 440
scalar Scenario.node[36].nic.mac1609_4 SlotsBackoff 700
scalar Scenario.node[36].nic.mac1609_4 NumInternalContention 0
scalar Scenario.node[36].nic.mac1609_4 totalBusyTime 2.3204
scalar Scenario.node[36].veinsmobility startTime 37
scalar Scenario.node[36].veinsmobility totalTime 43
scalar Scenario.node[36].veinsmobility stopTime 81
scalar Scenario.node[36].veinsmobility minSpeed 3.6900251476447
scalar Scenario.node[36].veinsmobility maxSpeed 8.3235654175514
scalar Scenario.node[36].veinsmobility totalDistance 299.3965574783
scalar Scenario.node[36].veinsmobility totalCO2Emission 95.315757245718
scalar Scenario.node[54].appl generatedWSMs 0
scalar Scenario.node[54].appl receivedWSMs 14
scalar Scenario.node[54].appl generatedBSMs 260
scalar Scenario.node[54].appl receivedBSMs 14190
scalar Scenario.node[54].appl generatedWSAs 0
scalar Scenario.node[54].appl receivedWSAs 0
scalar Scenario.node[54].nic.phy80211p busyTime 0.057365230769248
scalar Scenario.node[54].nic.mac1609_4 ReceivedUnicastPackets 0
scalar Scenario.node[54].nic.mac1609_4 ReceivedBroadcasts 14204
scalar Scenario.node[54].nic.mac1609_4 SentPackets 260
scalar Scenario.node[54].nic.mac1609_4 SentAcknowledgements 0
scalar Scenario.node[54].nic.mac1609_4 SNIRLostPackets 109
scalar Scenario.node[54].nic.mac1609_4 RXTXLostPackets 0
scalar Scenario.node[54].nic.mac1609_4 TotalLostPackets 109
scalar Scenario.node[54].nic.mac1609_4 DroppedPacketsInMac 0
scalar Scenario.node[54].nic.mac1609_4 TooLittleTime 0
scalar Scenario.node[54].nic.mac1609_4 TimesIntoBackoff 260
scalar Scenario.node[54].nic.mac1609_4 SlotsBackoff 409
scalar Scenario.node[54].nic.mac1609_4 NumInternalContention 0
scalar Scenario.node[54].nic.mac1609_4 totalBusyTime 1.512204
scalar Scenario.node[54].veinsmobility startTime 55
scalar Scenario.node[54].veinsmobility totalTime 25
scalar Scenario.node[54].veinsmobility stopTime 81
scalar Scenario.node[54].veinsmobility minSpeed 1.1018730515836
scalar Scenario.node[54].veinsmobility maxSpeed 8.3292479973636
scalar Scenario.node[54].veinsmobility totalDistance 154.83492628751
scalar Scenario.node[54].veinsmobility totalCO2Emission 56.178196878293
scalar Scenario.node[51].appl generatedWSMs 0
scalar Scenario.node[51].appl receivedWSMs 13
scalar Scenario.node[51].appl generatedBSMs 310
scalar Scenario.node[51].appl receivedBSMs 16657
scalar Scenario.node[51].appl generatedWSAs 0
scalar Scenario.node[51].appl receivedWSAs 0
scalar Scenario.node[51].nic.phy80211p busyTime 0.056373161290345
scalar Scenario.node[51].nic.mac1609_4 ReceivedUnicastPackets 0
scalar Scenario.node[51].nic.mac1609_4 ReceivedBroadcasts 16670
scalar Scenario.node[51].nic.mac1609_4 SentPackets 310
scalar Scenario.node[51].nic.mac1609_4 SentAcknowledgements 0
scalar Scenario.node[51].nic.mac1609_4 SNIRLostPackets 104
scalar Scenario.node[51].nic.mac1609_4 RXTXLostPackets 0
scalar Scenario.node[51].nic.mac1609_4 TotalLostPackets 104
scalar Scenario.node[51].nic.mac1609_4 DroppedPacketsInMac 0
scalar Scenario.node[51].nic.mac1609_4 TooLittleTime 0
scalar Scenario.node[51].nic.mac1609_4 TimesIntoBackoff 620
scalar Scenario.node[51].nic.mac1609_4 SlotsBackoff 944
scalar Scenario.node[51].nic.mac1609_4 NumInternalContention 0
scalar Scenario.node[51].nic.mac1609_4 totalBusyTime 1.772592316395
scalar Scenario.node[51].veinsmobility startTime 52
scalar Scenario.node[51].veinsmobility totalTime 30
scalar Scenario.node[51].veinsmobility stopTime 83
scalar Scenario.node[51].veinsmobility minSpeed 3.9162058635048
scalar Scenario.node[51].veinsmobility maxSpeed 8.3191509360424
scalar Scenario.node[51].veinsmobility totalDistance 227.23776392054
scalar Scenario.node[51].veinsmobility totalCO2Emission 58.593146750672
scalar Scenario.node[17].appl generatedWSMs 0
scalar Scenario.node[17].appl receivedWSMs 23
scalar Scenario.node[17].appl generatedBSMs 680
scalar Scenario.node[17].appl receivedBSMs 28982
scalar Scenario.node[17].appl generatedWSAs 0
scalar Scenario.node[17].appl receivedWSAs 0
scalar Scenario.node[17].nic.phy80211p busyTime 0.044701764705879
scalar Scenario.node[17].nic.mac1609_4 ReceivedUnicastPackets 0
scalar Scenario.node[17].nic.mac1609_4 ReceivedBroadcasts 29005
scalar Scenario.node[17].nic.mac1609_4 SentPackets 680
scalar Scenario.node[17].nic.mac1609_4 SentAcknowledgements 0
scalar Scenario.node[17].nic.mac1609_4 SNIRLostPackets 180
scalar Scenario.node[17].nic.mac1609_4 RXTXLostPackets 0
scalar Scenario.node[17].nic.mac1609_4 TotalLostPackets 180
scalar Scenario.node[17].nic.mac1609_4 DroppedPacketsInMac 0
scalar Scenario.node[17].nic.mac1609_4 TooLittleTime 0
scalar Scenario.node[17].nic.mac1609_4 TimesIntoBackoff 680
scalar Scenario.node[17].nic.mac1609_4 SlotsBackoff 1031
scalar Scenario.node[17].nic.mac1609_4 NumInternalContention 0
scalar Scenario.node[17].nic.mac1609_4 totalBusyTime 3.097537748866
scalar Scenario.node[17].veinsmobility startTime 18
scalar Scenario.node[17].veinsmobility totalTime 67
scalar Scenario.node[17].veinsmobility stopTime 86
scalar Scenario.node[17].veinsmobility minSpeed 3.2925334572402
scalar Scenario.node[17].veinsmobility maxSpeed 11.234194630601
scalar Scenario.node[17].veinsmobility totalDistance 522.35959143262
scalar Scenario.node[17].veinsmobility totalCO2Emission 130.38692258844
scalar Scenario.node[5].appl generatedWSMs 1
scalar Scenario.node[5].appl receivedWSMs 23
scalar Scenario.node[5].appl generatedBSMs 800
scalar Scenario.node[5].appl receivedBSMs 30227
scalar Scenario.node[5].appl generatedWSAs 0
scalar Scenario.node[5].appl receivedWSAs 0
scalar Scenario.node[5].nic.phy80211p busyTime 0.039625799999995
scalar Scenario.node[5].nic.mac1609_4 ReceivedUnicastPackets 0
scalar Scenario.node[5].nic.mac1609_4 ReceivedBroadcasts 30250
scalar Scenario.node[5].nic.mac1609_4 SentPackets 801
scalar Scenario.node[5].nic.mac1609_4 SentAcknowledgements 0
scalar Scenario.node[5].nic.mac1609_4 SNIRLostPackets 192
scalar Scenario.node[5].nic.mac1609_4 RXTXLostPackets 2
scalar Scenario.node[5].nic.mac1609_4 TotalLostPackets 194
scalar Scenario.node[5].nic.mac1609_4 DroppedPacketsInMac 0
scalar Scenario.node[5].nic.mac1609_4 TooLittleTime 0
scalar Scenario.node[5].nic.mac1609_4 TimesIntoBackoff 801
scalar Scenario.node[5].nic.mac1609_4 SlotsBackoff 1208
scalar Scenario.node[5].nic.mac1609_4 NumInternalContention 0
scalar Scenario.node[5].nic.mac1609_4 totalBusyTime 3.241177
scalar Scenario.node[5].veinsmobility startTime 6
scalar Scenario.node[5].veinsmobility totalTime 79
scalar Scenario.node[5].veinsmobility stopTime 86
scalar Scenario.node[5].veinsmobility minSpeed 0
scalar Scenario.node[5].veinsmobility maxSpeed 13.833481117054
scalar Scenario.node[5].veinsmobility totalDistance 538.79413872391
scalar Scenario.node[5].veinsmobility totalCO2Emission 163.29258898185
scalar Scenario.node[33].appl generatedWSMs 1
scalar Scenario.node[33].appl receivedWSMs 21
scalar Scenario.node[33].appl generatedBSMs 540
scalar Scenario.node[33].appl receivedBSMs 26140
scalar Scenario.node[33].appl generatedWSAs 0
scalar Scenario.node[33].appl receivedWSAs 0
scalar Scenario.node[33].nic.phy80211p busyTime 0.050804296296298
scalar Scenario.node[33].nic.mac1609_4 ReceivedUnicastPackets 0
scalar Scenario.node[33].nic.mac1609_4 ReceivedBroadcasts 26161
scalar Scenario.node[33].nic.mac1609_4 SentPackets 541
scalar Scenario.node[33].nic.mac1609_4 SentAcknowledgements 0
scalar Scenario.node[33].nic.mac1609_4 SNIRLostPackets 180
scalar Scenario.node[33].nic.mac1609_4 RXTXLostPackets 1
scalar Scenario.node[33].nic.mac1609_4 TotalLostPackets 181
scalar Scenario.node[33].nic.mac1609_4 DroppedPacketsInMac 0
scalar Scenario.node[33].nic.mac1609_4 TooLittleTime 0
scalar Scenario.node[33].nic.mac1609_4 TimesIntoBackoff 541
scalar Scenario.node[33].nic.mac1609_4 SlotsBackoff 794
scalar Scenario.node[33].nic.mac1609_4 NumInternalContention 0
scalar Scenario.node[33].nic.mac1609_4 totalBusyTime 2.787013976664
scalar Scenario.node[33].veinsmobility startTime 35
scalar Scenario.node[33].veinsmobility totalTime 53
scalar Scenario.node[33].veinsmobility stopTime 89
scalar Scenario.node[33].veinsmobility minSpeed 0.99760108715267
scalar Scenario.node[33].veinsmobility maxSpeed 8.3110407881485
scalar Scenario.node[33].veinsmobility totalDistance 304.20471457143
scalar Scenario.node[33].veinsmobility totalCO2Emission 102.43821410835
scalar Scenario.node[10].appl generatedWSMs 1
scalar Scenario.node[10].appl receivedWSMs 25
scalar Scenario.node[10].appl generatedBSMs 790
scalar Scenario.node[10].appl receivedBSMs 31657
scalar Scenario.node[10].appl generatedWSAs 0
scalar Scenario.node[10].appl receivedWSAs 0
scalar Scenario.node[10].nic.phy80211p busyTime 0.04203189873417
scalar Scenario.node[10].nic.mac1609_4 ReceivedUnicastPackets 0
scalar Scenario.node[10].nic.mac1609_4 ReceivedBroadcasts 31682
scalar Scenario.node[10].nic.mac1609_4 SentPackets 791
scalar Scenario.node[10].nic.mac1609_4 SentAcknowledgements 0
scalar Scenario.node[10].nic.mac1609_4 SNIRLostPackets 203
scalar Scenario.node[10].nic.mac1609_4 RXTXLostPackets 0
scalar Scenario.node[10].nic.mac1609_4 TotalLostPackets 203
scalar Scenario.node[10].nic.mac1609_4 DroppedPacketsInMac 0
scalar Scenario.node[10].nic.mac1609_4 TooLittleTime 0
scalar Scenario.node[10].nic.mac1609_4 TimesIntoBackoff 791
scalar Scenario.node[10].nic.mac1609_4 SlotsBackoff 1224
scalar Scenario.node[10].nic.mac1609_4 NumInternalContention 0
scalar Scenario.node[10].nic.mac1609_4 totalBusyTime 3.390119
scalar Scenario.node[10].veinsmobility startTime 11
scalar Scenario.node[10].veinsmobility totalTime 78
scalar Scenario.node[10].veinsmobility stopTime 90
scalar Scenario.node[10].veinsmobility minSpeed 0
scalar Scenario.node[10].veinsmobility maxSpeed 13.880213953683
scalar Scenario.node[10].veinsmobility totalDistance 548.03298571603
scalar Scenario.node[10].veinsmobility totalCO2Emission 164.62111347059
scalar Scenario.node[42].appl generatedWSMs 1
scalar Scenario.node[42].appl receivedWSMs 20
scalar Scenario.node[42].appl generatedBSMs 470
scalar Scenario.node[42].appl receivedBSMs 23786
scalar Scenario.node[42].appl generatedWSAs 0
scalar Scenario.node[42].appl receivedWSAs 0
scalar Scenario.node[42].nic.phy80211p busyTime 0.053131574468093
scalar Scenario.node[42].nic.mac1609_4 ReceivedUnicastPackets 0
scalar Scenario.node[42].nic.mac1609_4 ReceivedBroadcasts 23806
scalar Scenario.node[42].nic.mac1609_4 SentPackets 471
scalar Scenario.node[42].nic.mac1609_4 SentAcknowledgements 0
scalar Scenario.node[42].nic.mac1609_4 SNIRLostPackets 166
scalar Scenario.node[42].nic.mac1609_4 RXTXLostPackets 0
scalar Scenario.node[42].nic.mac1609_4 TotalLostPackets 166
scalar Scenario.node[42].nic.mac1609_4 DroppedPacketsInMac 0
scalar Scenario.node[42].nic.mac1609_4 TooLittleTime 0
scalar Scenario.node[42].nic.mac1609_4 TimesIntoBackoff 471
scalar Scenario.node[42].nic.mac1609_4 SlotsBackoff 716
scalar Scenario.node[42].nic.mac1609_4 NumInternalContention 0
scalar Scenario.node[42].nic.mac1609_4 totalBusyTime 2.535551
scalar Scenario.node[42].veinsmobility startTime 44
scalar Scenario.node[42].veinsmobility totalTime 46
scalar Scenario.node[42].veinsmobility stopTime 91
scalar Scenario.node[42].veinsmobility minSpeed 0.54308150850807
scalar Scenario.node[42].veinsmobility maxSpeed 8.3270876340126
scalar Scenario.node[42].veinsmobility totalDistance 324.4935481669
scalar Scenario.node[42].veinsmobility totalCO2Emission 83.217556772351
scalar Scenario.node[44].appl generatedWSMs 1
scalar Scenario.node[44].appl receivedWSMs 21
scalar Scenario.node[44].appl generatedBSMs 470
scalar Scenario.node[44].appl receivedBSMs 23804
scalar Scenario.node[44].appl generatedWSAs 0
scalar Scenario.node[44].appl receivedWSAs 0
scalar Scenario.node[44].nic.phy80211p busyTime 0.053148765957455
scalar Scenario.node[44].nic.mac1609_4 ReceivedUnicastPackets 0
scalar Scenario.node[44].nic.mac1609_4 ReceivedBroadcasts 23825
scalar Scenario.node[44].nic.mac1609_4 SentPackets 471
scalar Scenario.node[44].nic.mac1609_4 SentAcknowledgements 0
scalar Scenario.node[44].nic.mac1609_4 SNIRLostPackets 156
scalar Scenario.node[44].nic.mac1609_4 RXTXLostPackets 1
scalar Scenario.node[44].nic.mac1609_4 TotalLostPackets 157
scalar Scenario.node[44].nic.mac1609_4 DroppedPacketsInMac 0
scalar Scenario.node[44].nic.mac1609_4 TooLittleTime 0
scalar Scenario.node[44].nic.mac1609_4 TimesIntoBackoff 471
scalar Scenario.node[44].nic.mac1609_4 SlotsBackoff 719
scalar Scenario.node[44].nic.mac1609_4 NumInternalContention 0
scalar Scenario.node[44].nic.mac1609_4 totalBusyTime 2.537111
scalar Scenario.node[44].veinsmobility startTime 45
scalar Scenario.node[44].veinsmobility totalTime 46
scalar Scenario.node[44].veinsmobility stopTime 92
scalar Scenario.node[44].veinsmobility minSpeed 0
scalar Scenario.node[44].veinsmobility maxSpeed 8.3230543261208
scalar Scenario.node[44].veinsmobility totalDistance 269.25464520648
scalar Scenario.node[44].veinsmobility totalCO2Emission 87.838582101934
scalar Scenario.node[64].appl generatedWSMs 0
scalar Scenario.node[64].appl receivedWSMs 9
scalar Scenario.node[64].appl generatedBSMs 270
scalar Scenario.node[64].appl receivedBSMs 13622
scalar Scenario.node[64].appl generatedWSAs 0
scalar Scenario.node[64].appl receivedWSAs 0
scalar Scenario.node[64].nic.phy80211p busyTime 0.052668148148162
scalar Scenario.node[64].nic.mac1609_4 ReceivedUnicastPackets 0
scalar Scenario.node[64].nic.mac1609_4 ReceivedBroadcasts 13631
scalar Scenario.node[64].nic.mac1609_4 SentPackets 270
scalar Scenario.node[64].nic.mac1609_4 SentAcknowledgements 0
scalar Scenario.node[64].nic.mac1609_4 SNIRLostPackets 24
scalar Scenario.node[64].nic.mac1609_4 RXTXLostPackets 0
scalar Scenario.node[64].nic.mac1609_4 TotalLostPackets 24
scalar Scenario.node[64].nic.mac1609_4 DroppedPacketsInMac 0
scalar Scenario.node[64].nic.mac1609_4 TooLittleTime 0
scalar Scenario.node[64].nic.mac1609_4 TimesIntoBackoff 270
scalar Scenario.node[64].nic.mac1609_4 SlotsBackoff 374
scalar Scenario.node[64].nic.mac1609_4 NumInternalContention 0
scalar Scenario.node[64].nic.mac1609_4 totalBusyTime 1.448654
scalar Scenario.node[64].veinsmobility startTime 66
scalar Scenario.node[64].veinsmobility totalTime 26
scalar Scenario.node[64].veinsmobility stopTime 93
scalar Scenario.node[64].veinsmobility minSpeed 4.1399381529178
scalar Scenario.node[64].veinsmobility maxSpeed 10.27732750967
scalar Scenario.node[64].veinsmobility totalDistance 199.03084265644
scalar Scenario.node[64].veinsmobility totalCO2Emission 56.552144895166
scalar Scenario.node[34].appl generatedWSMs 0
scalar Scenario.node[34].appl receivedWSMs 21
scalar Scenario.node[34].appl generatedBSMs 580
scalar Scenario.node[34].appl receivedBSMs 27975
scalar Scenario.node[34].appl generatedWSAs 0
scalar Scenario.node[34].appl receivedWSAs 0
scalar Scenario.node[34].nic.phy80211p busyTime 0.050298068965516
scalar Scenario.node[34].nic.mac1609_4 ReceivedUnicastPackets 0
scalar Scenario.node[34].nic.mac1609_4 ReceivedBroadcasts 27996
scalar Scenario.node[34].nic.mac1609_4 SentPackets 580
scalar Scenario.node[34].nic.mac1609_4 SentAcknowledgements 0
scalar Scenario.node[34].nic.mac1609_4 SNIRLostPackets 13
scalar Scenario.node[34].nic.mac1609_4 RXTXLostPackets 115
scalar Scenario.node[34].nic.mac1609_4 TotalLostPackets 128
scalar Scenario.node[34].nic.mac1609_4 DroppedPacketsInMac 0
scalar Scenario.node[34].nic.mac1609_4 TooLittleTime 0
scalar Scenario.node[34].nic.mac1609_4 TimesIntoBackoff 580
scalar Scenario.node[34].nic.mac1609_4 SlotsBackoff 827
scalar Scenario.node[34].nic.mac1609_4 NumInternalContention 0
scalar Scenario.node[34].nic.mac1609_4 totalBusyTime 2.976332
scalar Scenario.node[34].veinsmobility startTime 36
scalar Scenario.node[34].veinsmobility totalTime 57
scalar Scenario.node[34].veinsmobility stopTime 94
scalar Scenario.node[34].veinsmobility minSpeed 2.2608442186446
scalar Scenario.node[34].veinsmobility maxSpeed 8.3295366589772
scalar Scenario.node[34].veinsmobility totalDistance 390.59681760407
scalar Scenario.node[34].veinsmobility totalCO2Emission 129.77536541382
scalar Scenario.node[3].appl generatedWSMs 1
scalar Scenario.node[3].appl receivedWSMs 25
scalar Scenario.node[3].appl generatedBSMs 930
scalar Scenario.node[3].appl receivedBSMs 34880
scalar Scenario.node[3].appl generatedWSAs 0
scalar Scenario.node[3].appl receivedWSAs 0
scalar Scenario.node[3].nic.phy80211p busyTime 0.03934640860214
scalar Scenario.node[3].nic.mac1609_4 ReceivedUnicastPackets 0
scalar Scenario.node[3].nic.mac1609_4 ReceivedBroadcasts 34905
scalar Scenario.node[3].nic.mac1609_4 SentPackets 931
scalar Scenario.node[3].nic.mac1609_4 SentAcknowledgements 0
scalar Scenario.node[3].nic.mac1609_4 SNIRLostPackets 233
scalar Scenario.node[3].nic.mac1609_4 RXTXLostPackets 0
scalar Scenario.node[3].nic.mac1609_4 TotalLostPackets 233
scalar Scenario.node[3].nic.mac1609_4 DroppedPacketsInMac 0
scalar Scenario.node[3].nic.mac1609_4 TooLittleTime 0
scalar Scenario.node[3].nic.mac1609_4 TimesIntoBackoff 931
scalar Scenario.node[3].nic.mac1609_4 SlotsBackoff 1426
scalar Scenario.node[3].nic.mac1609_4 NumInternalContention 0
scalar Scenario.node[3].nic.mac1609_4 totalBusyTime 3.743283004541
scalar Scenario.node[3].veinsmobility startTime 4
scalar Scenario.node[3].veinsmobility totalTime 92
scalar Scenario.node[3].veinsmobility stopTime 97
scalar Scenario.node[3].veinsmobility minSpeed 0
scalar Scenario.node[3].veinsmobility maxSpeed 8.3296726505156
scalar Scenario.node[3].veinsmobility totalDistance 548.3746478649
scalar Scenario.node[3].veinsmobility totalCO2Emission 167.00731635433
scalar Scenario.node[56].appl generatedWSMs 0
scalar Scenario.node[56].appl receivedWSMs 16
scalar Scenario.node[56].appl generatedBSMs 410
scalar Scenario.node[56].appl receivedBSMs 20537
scalar Scenario.node[56].appl generatedWSAs 0
scalar Scenario.node[56].appl receivedWSAs 0
scalar Scenario.node[56].nic.phy80211p busyTime 0.052426146341482
scalar Scenario.node[56].nic.mac1609_4 ReceivedUnicastPackets 0
scalar Scenario.node[56].nic.mac1609_4 ReceivedBroadcasts 20553
scalar Scenario.node[56].nic.mac1609_4 SentPackets 410
scalar Scenario.node[56].nic.mac1609_4 SentAcknowledgements 0
scalar Scenario.node[56].nic.mac1609_4 SNIRLostPackets 83
scalar Scenario.node[56].nic.mac1609_4 RXTXLostPackets 0
scalar Scenario.node[56].nic.mac1609_4 TotalLostPackets 83
scalar Scenario.node[56].nic.mac1609_4 DroppedPacketsInMac 0
scalar Scenario.node[56].nic.mac1609_4 TooLittleTime 0
scalar Scenario.node[56].nic.mac1609_4 TimesIntoBackoff 410
scalar Scenario.node[56].nic.mac1609_4 SlotsBackoff 543
scalar Scenario.node[56].nic.mac1609_4 NumInternalContention 0
scalar Scenario.node[56].nic.mac1609_4 totalBusyTime 2.186658001247
scalar Scenario.node[56].veinsmobility startTime 57
scalar Scenario.node[56].veinsmobility totalTime 40
scalar Scenario.node[56].veinsmobility stopTime 98
scalar Scenario.node[56].veinsmobility minSpeed 3.5703939542285
scalar Scenario.node[56].veinsmobility maxSpeed 8.3288363647112
scalar Scenario.node[56].veinsmobility totalDistance 289.0944545497
scalar Scenario.node[56].veinsmobility totalCO2Emission 81.631790076629
scalar Scenario.node[47].appl generatedWSMs 0
scalar Scenario.node[47].appl receivedWSMs 20
scalar Scenario.node[47].appl generatedBSMs 510
scalar Scenario.node[47].appl receivedBSMs 25312
scalar Scenario.node[47].appl generatedWSAs 0
scalar Scenario.node[47].appl receivedWSAs 0
scalar Scenario.node[47].nic.phy80211p busyTime 0.051921254901965
scalar Scenario.node[47].nic.mac1609_4 ReceivedUnicastPackets 0
scalar Scenario.node[47].nic.mac1609_4 ReceivedBroadcasts 25332
scalar Scenario.node[47].nic.mac1609_4 SentPackets 510
scalar Scenario.node[47].nic.mac1609_4 SentAcknowledgements 0
scalar Scenario.node[47].nic.mac1609_4 SNIRLostPackets 90
scalar Scenario.node[47].nic.mac1609_4 RXTXLostPackets 0
scalar Scenario.node[47].nic.mac1609_4 TotalLostPackets 90
scalar Scenario.node[47].nic.mac1609_4 DroppedPacketsInMac 0
scalar Scenario.node[47].nic.mac1609_4 TooLittleTime 0
scalar Scenario.node[47].nic.mac1609_4 TimesIntoBackoff 510
scalar Scenario.node[47].nic.mac1609_4 SlotsBackoff 763
scalar Scenario.node[47].nic.mac1609_4 NumInternalContention 0
scalar Scenario.node[47].nic.mac1609_4 totalBusyTime 2.691566
scalar Scenario.node[47].veinsmobility startTime 48
scalar Scenario.node[47].veinsmobility totalTime 50
scalar Scenario.node[47].veinsmobility stopTime 99
scalar Scenario.node[47].veinsmobility minSpeed 3.8810652799816
scalar Scenario.node[47].veinsmobility maxSpeed 8.3281526015163
scalar Scenario.node[47].veinsmobility totalDistance 365.58798101606
scalar Scenario.node[47].veinsmobility totalCO2Emission 101.08343602265
scalar Scenario.node[6].appl generatedWSMs 1
scalar Scenario.node[6].appl receivedWSMs 28
scalar Scenario.node[6].appl generatedBSMs 950
scalar Scenario.node[6].appl receivedBSMs 36601
scalar Scenario.node[6].appl generatedWSAs 0
scalar Scenario.node[6].appl receivedWSAs 0
scalar Scenario.node[6].nic.phy80211p busyTime 0.040394947368409
scalar Scenario.node[6].nic.mac1609_4 ReceivedUnicastPackets 0
scalar Scenario.node[6].nic.mac1609_4 ReceivedBroadcasts 36629
scalar Scenario.node[6].nic.mac1609_4 SentPackets 951
scalar Scenario.node[6].nic.mac1609_4 SentAcknowledgements 0
scalar Scenario.node[6].nic.mac1609_4 SNIRLostPackets 221
scalar Scenario.node[6].nic.mac1609_4 RXTXLostPackets 0
scalar Scenario.node[6].nic.mac1609_4 TotalLostPackets 221
scalar Scenario.node[6].nic.mac1609_4 DroppedPacketsInMac 0
scalar Scenario.node[6].nic.mac1609_4 TooLittleTime 0
scalar Scenario.node[6].nic.mac1609_4 TimesIntoBackoff 951
scalar Scenario.node[6].nic.mac1609_4 SlotsBackoff 1400
scalar Scenario.node[6].nic.mac1609_4 NumInternalContention 0
scalar Scenario.node[6].nic.mac1609_4 totalBusyTime 3.923687
scalar Scenario.node[6].veinsmobility startTime 7
scalar Scenario.node[6].veinsmobility totalTime 94
scalar Scenario.node[6].veinsmobility stopTime 102
scalar Scenario.node[6].veinsmobility minSpeed 0
scalar Scenario.node[6].veinsmobility maxSpeed 13.861806867023
scalar Scenario.node[6].veinsmobility totalDistance 649.43169998023
scalar Scenario.node[6].veinsmobility totalCO2Emission 189.97828551565
scalar Scenario.node[1].appl generatedWSMs 1
scalar Scenario.node[1].appl receivedWSMs 28
scalar Scenario.node[1].appl generatedBSMs 1050
scalar Scenario.node[1].appl receivedBSMs 38498
scalar Scenario.node[1].appl generatedWSAs 0
scalar Scenario.node[1].appl receivedWSAs 0
scalar Scenario.node[1].nic.phy80211p busyTime 0.038427504761893
scalar Scenario.node[1].nic.mac1609_4 ReceivedUnicastPackets 0
scalar Scenario.node[1].nic.mac1609_4 ReceivedBroadcasts 38526
scalar Scenario.node[1].nic.mac1609_4 SentPackets 1051
scalar Scenario.node[1].nic.mac1609_4 SentAcknowledgements 0
scalar Scenario.node[1].nic.mac1609_4 SNIRLostPackets 223
scalar Scenario.node[1].nic.mac1609_4 RXTXLostPackets 1
scalar Scenario.node[1].nic.mac1609_4 TotalLostPackets 224
scalar Scenario.node[1].nic.mac1609_4 DroppedPacketsInMac 0
scalar Scenario.node[1].nic.mac1609_4 TooLittleTime 0
scalar Scenario.node[1].nic.mac1609_4 TimesIntoBackoff 1051
scalar Scenario.node[1].nic.mac1609_4 SlotsBackoff 1613
scalar Scenario.node[1].nic.mac1609_4 NumInternalContention 0
scalar Scenario.node[1].nic.mac1609_4 totalBusyTime 4.131787291463
scalar Scenario.node[1].veinsmobility startTime 2
scalar Scenario.node[1].veinsmobility totalTime 104
scalar Scenario.node[1].veinsmobility stopTime 107
scalar Scenario.node[1].veinsmobility minSpeed 0
scalar Scenario.node[1].veinsmobility maxSpeed 13.859592886602
scalar Scenario.node[1].veinsmobility totalDistance 525.04578069578
scalar Scenario.node[1].veinsmobility totalCO2Emission 208.44771941541
scalar Scenario.node[45].appl generatedWSMs 0
scalar Scenario.node[45].appl receivedWSMs 24
scalar Scenario.node[45].appl generatedBSMs 620
scalar Scenario.node[45].appl receivedBSMs 29318
scalar Scenario.node[45].appl generatedWSAs 0
scalar Scenario.node[45].appl receivedWSAs 0
scalar Scenario.node[45].nic.phy80211p busyTime 0.049501161290318
scalar Scenario.node[45].nic.mac1609_4 ReceivedUnicastPackets 0
scalar Scenario.node[45].nic.mac1609_4 ReceivedBroadcasts 29342
scalar Scenario.node[45].nic.mac1609_4 SentPackets 620
scalar Scenario.node[45].nic.mac1609_4 SentAcknowledgements 0
scalar Scenario.node[45].nic.mac1609_4 SNIRLostPackets 124
scalar Scenario.node[45].nic.mac1609_4 RXTXLostPackets 0
scalar Scenario.node[45].nic.mac1609_4 TotalLostPackets 124
scalar Scenario.node[45].nic.mac1609_4 DroppedPacketsInMac 0
scalar Scenario.node[45].nic.mac1609_4 TooLittleTime 0
scalar Scenario.node[45].nic.mac1609_4 TimesIntoBackoff 620
scalar Scenario.node[45].nic.mac1609_4 SlotsBackoff 921
scalar Scenario.node[45].nic.mac1609_4 NumInternalContention 0
scalar Scenario.node[45].nic.mac1609_4 totalBusyTime 3.123892000355
scalar Scenario.node[45].veinsmobility startTime 46
scalar Scenario.node[45].veinsmobility totalTime 61
scalar Scenario.node[45].veinsmobility stopTime 108
scalar Scenario.node[45].veinsmobility minSpeed 1.2780518487595
scalar Scenario.node[45].veinsmobility maxSpeed 8.3284821532085
scalar Scenario.node[45].veinsmobility totalDistance 426.1233157692
scalar Scenario.node[45].veinsmobility totalCO2Emission 127.14385538499
scalar Scenario.node[46].appl generatedWSMs 1
scalar Scenario.node[46].appl receivedWSMs 22
scalar Scenario.node[46].appl generatedBSMs 640
scalar Scenario.node[46].appl receivedBSMs 29881
scalar Scenario.node[46].appl generatedWSAs 0
scalar Scenario.node[46].appl receivedWSAs 0
scalar Scenario.node[46].nic.phy80211p busyTime 0.048856999999995
scalar Scenario.node[46].nic.mac1609_4 ReceivedUnicastPackets 0
scalar Scenario.node[46].nic.mac1609_4 ReceivedBroadcasts 29903
scalar Scenario.node[46].nic.mac1609_4 SentPackets 641
scalar Scenario.node[46].nic.mac1609_4 SentAcknowledgements 0
scalar Scenario.node[46].nic.mac1609_4 SNIRLostPackets 121
scalar Scenario.node[46].nic.mac1609_4 RXTXLostPackets 0
scalar Scenario.node[46].nic.mac1609_4 TotalLostPackets 121
scalar Scenario.node[46].nic.mac1609_4 DroppedPacketsInMac 0
scalar Scenario.node[46].nic.mac1609_4 TooLittleTime 0
scalar Scenario.node[46].nic.mac1609_4 TimesIntoBackoff 641
scalar Scenario.node[46].nic.mac1609_4 SlotsBackoff 922
scalar Scenario.node[46].nic.mac1609_4 NumInternalContention 0
scalar Scenario.node[46].nic.mac1609_4 totalBusyTime 3.184313
scalar Scenario.node[46].veinsmobility startTime 47
scalar Scenario.node[46].veinsmobility totalTime 63
scalar Scenario.node[46].veinsmobility stopTime 111
scalar Scenario.node[46].veinsmobility minSpeed 0
scalar Scenario.node[46].veinsmobility maxSpeed 13.616042928324
scalar Scenario.node[46].veinsmobility totalDistance 415.38833533611
scalar Scenario.node[46].veinsmobility totalCO2Emission 150.96382057241
scalar Scenario.node[18].appl generatedWSMs 1
scalar Scenario.node[18].appl receivedWSMs 28
scalar Scenario.node[18].appl generatedBSMs 930
scalar Scenario.node[18].appl receivedBSMs 38616
scalar Scenario.node[18].appl generatedWSAs 0
scalar Scenario.node[18].appl receivedWSAs 0
scalar Scenario.node[18].nic.phy80211p busyTime 0.043522580645149
scalar Scenario.node[18].nic.mac1609_4 ReceivedUnicastPackets 0
scalar Scenario.node[18].nic.mac1609_4 ReceivedBroadcasts 38644
scalar Scenario.node[18].nic.mac1609_4 SentPackets 931
scalar Scenario.node[18].nic.mac1609_4 SentAcknowledgements 0
scalar Scenario.node[18].nic.mac1609_4 SNIRLostPackets 226
scalar Scenario.node[18].nic.mac1609_4 RXTXLostPackets 0
scalar Scenario.node[18].nic.mac1609_4 TotalLostPackets 226
scalar Scenario.node[18].nic.mac1609_4 DroppedPacketsInMac 0
scalar Scenario.node[18].nic.mac1609_4 TooLittleTime 0
scalar Scenario.node[18].nic.mac1609_4 TimesIntoBackoff 931
scalar Scenario.node[18].nic.mac1609_4 SlotsBackoff 1381
scalar Scenario.node[18].nic.mac1609_4 NumInternalContention 0
scalar Scenario.node[18].nic.mac1609_4 totalBusyTime 4.131667
scalar Scenario.node[18].veinsmobility startTime 19
scalar Scenario.node[18].veinsmobility totalTime 92
scalar Scenario.node[18].veinsmobility stopTime 112
scalar Scenario.node[18].veinsmobility minSpeed 0
scalar Scenario.node[18].veinsmobility maxSpeed 13.85021882562
scalar Scenario.node[18].veinsmobility totalDistance 476.1452178686
scalar Scenario.node[18].veinsmobility totalCO2Emission 191.28395679299
scalar Scenario.node[48].appl generatedWSMs 0
scalar Scenario.node[48].appl receivedWSMs 21
scalar Scenario.node[48].appl generatedBSMs 650
scalar Scenario.node[48].appl receivedBSMs 29915
scalar Scenario.node[48].appl generatedWSAs 0
scalar Scenario.node[48].appl receivedWSAs 0
scalar Scenario.node[48].nic.phy80211p busyTime 0.048185353846149
scalar Scenario.node[48].nic.mac1609_4 ReceivedUnicastPackets 0
scalar Scenario.node[48].nic.mac1609_4 ReceivedBroadcasts 29936
scalar Scenario.node[48].nic.mac1609_4 SentPackets 650
scalar Scenario.node[48].nic.mac1609_4 SentAcknowledgements 0
scalar Scenario.node[48].nic.mac1609_4 SNIRLostPackets 138
scalar Scenario.node[48].nic.mac1609_4 RXTXLostPackets 0
scalar Scenario.node[48].nic.mac1609_4 TotalLostPackets 138
scalar Scenario.node[48].nic.mac1609_4 DroppedPacketsInMac 0
scalar Scenario.node[48].nic.mac1609_4 TooLittleTime 0
scalar Scenario.node[48].nic.mac1609_4 TimesIntoBackoff 650
scalar Scenario.node[48].nic.mac1609_4 SlotsBackoff 953
scalar Scenario.node[48].nic.mac1609_4 NumInternalContention 0
scalar Scenario.node[48].nic.mac1609_4 totalBusyTime 3.191058
scalar Scenario.node[48].veinsmobility startTime 49
scalar Scenario.node[48].veinsmobility totalTime 64
scalar Scenario.node[48].veinsmobility stopTime 114
scalar Scenario.node[48].veinsmobility minSpeed 3.5523292402865
scalar Scenario.node[48].veinsmobility maxSpeed 8.3265845755232
scalar Scenario.node[48].veinsmobility totalDistance 463.44967944441
scalar Scenario.node[48].veinsmobility totalCO2Emission 134.6122373724
scalar Scenario.node[0].appl generatedWSMs 1
scalar Scenario.node[0].appl receivedWSMs 27
scalar Scenario.node[0].appl generatedBSMs 1130
scalar Scenario.node[0].appl receivedBSMs 40807
scalar Scenario.node[0].appl generatedWSAs 0
scalar Scenario.node[0].appl receivedWSAs 0
scalar Scenario.node[0].nic.phy80211p busyTime 0.037794123893801
scalar Scenario.node[0].nic.mac1609_4 ReceivedUnicastPackets 0
scalar Scenario.node[0].nic.mac1609_4 ReceivedBroadcasts 40834
scalar Scenario.node[0].nic.mac1609_4 SentPackets 1131
scalar Scenario.node[0].nic.mac1609_4 SentAcknowledgements 0
scalar Scenario.node[0].nic.mac1609_4 SNIRLostPackets 184
scalar Scenario.node[0].nic.mac1609_4 RXTXLostPackets 2
scalar Scenario.node[0].nic.mac1609_4 TotalLostPackets 186
scalar Scenario.node[0].nic.mac1609_4 DroppedPacketsInMac 0
scalar Scenario.node[0].nic.mac1609_4 TooLittleTime 0
scalar Scenario.node[0].nic.mac1609_4 TimesIntoBackoff 1131
scalar Scenario.node[0].nic.mac1609_4 SlotsBackoff 1765
scalar Scenario.node[0].nic.mac1609_4 NumInternalContention 0
scalar Scenario.node[0].nic.mac1609_4 totalBusyTime 4.376267
scalar Scenario.node[0].veinsmobility startTime 1
scalar Scenario.node[0].veinsmobility totalTime 112
scalar Scenario.node[0].veinsmobility stopTime 114
scalar Scenario.node[0].veinsmobility minSpeed 0.4408153927495
scalar Scenario.node[0].veinsmobility maxSpeed 8.3297747356468
scalar Scenario.node[0].veinsmobility totalDistance 699.98232868096
scalar Scenario.node[0].veinsmobility totalCO2Emission 243.68287041948
scalar Scenario.node[25].appl generatedWSMs 1
scalar Scenario.node[25].appl receivedWSMs 28
scalar Scenario.node[25].appl generatedBSMs 890
scalar Scenario.node[25].appl receivedBSMs 38056
scalar Scenario.node[25].appl generatedWSAs 0
scalar Scenario.node[25].appl receivedWSAs 0
scalar Scenario.node[25].nic.phy80211p busyTime 0.044835955056165
scalar Scenario.node[25].nic.mac1609_4 ReceivedUnicastPackets 0
scalar Scenario.node[25].nic.mac1609_4 ReceivedBroadcasts 38084
scalar Scenario.node[25].nic.mac1609_4 SentPackets 891
scalar Scenario.node[25].nic.mac1609_4 SentAcknowledgements 0
scalar Scenario.node[25].nic.mac1609_4 SNIRLostPackets 236
scalar Scenario.node[25].nic.mac1609_4 RXTXLostPackets 0
scalar Scenario.node[25].nic.mac1609_4 TotalLostPackets 236
scalar Scenario.node[25].nic.mac1609_4 DroppedPacketsInMac 0
scalar Scenario.node[25].nic.mac1609_4 TooLittleTime 0
scalar Scenario.node[25].nic.mac1609_4 TimesIntoBackoff 891
scalar Scenario.node[25].nic.mac1609_4 SlotsBackoff 1351
scalar Scenario.node[25].nic.mac1609_4 NumInternalContention 0
scalar Scenario.node[25].nic.mac1609_4 totalBusyTime 4.070267
scalar Scenario.node[25].veinsmobility startTime 26
scalar Scenario.node[25].veinsmobility totalTime 88
scalar Scenario.node[25].veinsmobility stopTime 115
scalar Scenario.node[25].veinsmobility minSpeed 0
scalar Scenario.node[25].veinsmobility maxSpeed 13.864297907278
scalar Scenario.node[25].veinsmobility totalDistance 466.07095612539
scalar Scenario.node[25].veinsmobility totalCO2Emission 182.10129453888
scalar Scenario.node[4].appl generatedWSMs 1
scalar Scenario.node[4].appl receivedWSMs 29
scalar Scenario.node[4].appl generatedBSMs 1120
scalar Scenario.node[4].appl receivedBSMs 41560
scalar Scenario.node[4].appl generatedWSAs 0
scalar Scenario.node[4].appl receivedWSAs 0
scalar Scenario.node[4].nic.phy80211p busyTime 0.038869285714284
scalar Scenario.node[4].nic.mac1609_4 ReceivedUnicastPackets 0
scalar Scenario.node[4].nic.mac1609_4 ReceivedBroadcasts 41589
scalar Scenario.node[4].nic.mac1609_4 SentPackets 1121
scalar Scenario.node[4].nic.mac1609_4 SentAcknowledgements 0
scalar Scenario.node[4].nic.mac1609_4 SNIRLostPackets 221
scalar Scenario.node[4].nic.mac1609_4 RXTXLostPackets 0
scalar Scenario.node[4].nic.mac1609_4 TotalLostPackets 221
scalar Scenario.node[4].nic.mac1609_4 DroppedPacketsInMac 0
scalar Scenario.node[4].nic.mac1609_4 TooLittleTime 0
scalar Scenario.node[4].nic.mac1609_4 TimesIntoBackoff 1121
scalar Scenario.node[4].nic.mac1609_4 SlotsBackoff 1753
scalar Scenario.node[4].nic.mac1609_4 NumInternalContention 0
scalar Scenario.node[4].nic.mac1609_4 totalBusyTime 4.457377
scalar Scenario.node[4].veinsmobility startTime 5
scalar Scenario.node[4].veinsmobility totalTime 111
scalar Scenario.node[4].veinsmobility stopTime 117
scalar Scenario.node[4].veinsmobility minSpeed 0
scalar Scenario.node[4].veinsmobility maxSpeed 22.203249517286
scalar Scenario.node[4].veinsmobility totalDistance 746.71088478289
scalar Scenario.node[4].veinsmobility totalCO2Emission 279.99595970175
scalar Scenario.node[58].appl generatedWSMs 1
scalar Scenario.node[58].appl receivedWSMs 17
scalar Scenario.node[58].appl generatedBSMs 570
scalar Scenario.node[58].appl receivedBSMs 25230
scalar Scenario.node[58].appl generatedWSAs 0
scalar Scenario.node[58].appl receivedWSAs 0
scalar Scenario.node[58].nic.phy80211p busyTime 0.046228631578951
scalar Scenario.node[58].nic.mac1609_4 ReceivedUnicastPackets 0
scalar Scenario.node[58].nic.mac1609_4 ReceivedBroadcasts 25247
scalar Scenario.node[58].nic.mac1609_4 SentPackets 571
scalar Scenario.node[58].nic.mac1609_4 SentAcknowledgements 0
scalar Scenario.node[58].nic.mac1609_4 SNIRLostPackets 64
scalar Scenario.node[58].nic.mac1609_4 RXTXLostPackets 1
scalar Scenario.node[58].nic.mac1609_4 TotalLostPackets 65
scalar Scenario.node[58].nic.mac1609_4 DroppedPacketsInMac 0
scalar Scenario.node[58].nic.mac1609_4 TooLittleTime 0
scalar Scenario.node[58].nic.mac1609_4 TimesIntoBackoff 571
scalar Scenario.node[58].nic.mac1609_4 SlotsBackoff 838
scalar Scenario.node[58].nic.mac1609_4 NumInternalContention 0
scalar Scenario.node[58].nic.mac1609_4 totalBusyTime 2.691531
scalar Scenario.node[58].veinsmobility startTime 60
scalar Scenario.node[58].veinsmobility totalTime 56
scalar Scenario.node[58].veinsmobility stopTime 117
scalar Scenario.node[58].veinsmobility minSpeed 0
scalar Scenario.node[58].veinsmobility maxSpeed 10.246095875194
scalar Scenario.node[58].veinsmobility totalDistance 376.11118970705
scalar Scenario.node[58].veinsmobility totalCO2Emission 110.32167303093
scalar Scenario.node[38].appl generatedWSMs 0
scalar Scenario.node[38].appl receivedWSMs 25
scalar Scenario.node[38].appl generatedBSMs 800
scalar Scenario.node[38].appl receivedBSMs 35302
scalar Scenario.node[38].appl generatedWSAs 0
scalar Scenario.node[38].appl receivedWSAs 0
scalar Scenario.node[38].nic.phy80211p busyTime 0.046179299999988
scalar Scenario.node[38].nic.mac1609_4 ReceivedUnicastPackets 0
scalar Scenario.node[38].nic.mac1609_4 ReceivedBroadcasts 35327
scalar Scenario.node[38].nic.mac1609_4 SentPackets 800
scalar Scenario.node[38].nic.mac1609_4 SentAcknowledgements 0
scalar Scenario.node[38].nic.mac1609_4 SNIRLostPackets 150
scalar Scenario.node[38].nic.mac1609_4 RXTXLostPackets 0
scalar Scenario.node[38].nic.mac1609_4 TotalLostPackets 150
scalar Scenario.node[38].nic.mac1609_4 DroppedPacketsInMac 0
scalar Scenario.node[38].nic.mac1609_4 TooLittleTime 0
scalar Scenario.node[38].nic.mac1609_4 TimesIntoBackoff 800
scalar Scenario.node[38].nic.mac1609_4 SlotsBackoff 1210
scalar Scenario.node[38].nic.mac1609_4 NumInternalContention 0
scalar Scenario.node[38].nic.mac1609_4 totalBusyTime 3.765360036837
scalar Scenario.node[38].veinsmobility startTime 39
scalar Scenario.node[38].veinsmobility totalTime 79
scalar Scenario.node[38].veinsmobility stopTime 119
scalar Scenario.node[38].veinsmobility minSpeed 3.2928389512388
scalar Scenario.node[38].veinsmobility maxSpeed 8.3296901086951
scalar Scenario.node[38].veinsmobility totalDistance 582.51708030016
scalar Scenario.node[38].veinsmobility totalCO2Emission 158.49910832383
scalar Scenario.node[55].appl generatedWSMs 0
scalar Scenario.node[55].appl receivedWSMs 17
scalar Scenario.node[55].appl generatedBSMs 630
scalar Scenario.node[55].appl receivedBSMs 27894
scalar Scenario.node[55].appl generatedWSAs 0
scalar Scenario.node[55].appl receivedWSAs 0
scalar Scenario.node[55].nic.phy80211p busyTime 0.046292317460316
scalar Scenario.node[55].nic.mac1609_4 ReceivedUnicastPackets 0
scalar Scenario.node[55].nic.mac1609_4 ReceivedBroadcasts 27911
scalar Scenario.node[55].nic.mac1609_4 SentPackets 630
scalar Scenario.node[55].nic.mac1609_4 SentAcknowledgements 0
scalar Scenario.node[55].nic.mac1609_4 SNIRLostPackets 97
scalar Scenario.node[55].nic.mac1609_4 RXTXLostPackets 0
scalar Scenario.node[55].nic.mac1609_4 TotalLostPackets 97
scalar Scenario.node[55].nic.mac1609_4 DroppedPacketsInMac 0
scalar Scenario.node[55].nic.mac1609_4 TooLittleTime 0
scalar Scenario.node[55].nic.mac1609_4 TimesIntoBackoff 630
scalar Scenario.node[55].nic.mac1609_4 SlotsBackoff 960
scalar Scenario.node[55].nic.mac1609_4 NumInternalContention 0
scalar Scenario.node[55].nic.mac1609_4 totalBusyTime 2.976286
scalar Scenario.node[55].veinsmobility startTime 56
scalar Scenario.node[55].veinsmobility totalTime 62
scalar Scenario.node[55].veinsmobility stopTime 119
scalar Scenario.node[55].veinsmobility minSpeed 3.6057451475088
scalar Scenario.node[55].veinsmobility maxSpeed 13.610390146545
scalar Scenario.node[55].veinsmobility totalDistance 473.43793631875
scalar Scenario.node[55].veinsmobility totalCO2Emission 145.42832335894
scalar Scenario.node[32].appl generatedWSMs 0
scalar Scenario.node[32].appl receivedWSMs 28
scalar Scenario.node[32].appl generatedBSMs 860
scalar Scenario.node[32].appl receivedBSMs 37168
scalar Scenario.node[32].appl generatedWSAs 0
scalar Scenario.node[32].appl receivedWSAs 0
scalar Scenario.node[32].nic.phy80211p busyTime 0.045272651162777
scalar Scenario.node[32].nic.mac1609_4 ReceivedUnicastPackets 0
scalar Scenario.node[32].nic.mac1609_4 ReceivedBroadcasts 37196
scalar Scenario.node[32].nic.mac1609_4 SentPackets 860
scalar Scenario.node[32].nic.mac1609_4 SentAcknowledgements 0
scalar Scenario.node[32].nic.mac1609_4 SNIRLostPackets 193
scalar Scenario.node[32].nic.mac1609_4 RXTXLostPackets 0
scalar Scenario.node[32].nic.mac1609_4 TotalLostPackets 193
scalar Scenario.node[32].nic.mac1609_4 DroppedPacketsInMac 0
scalar Scenario.node[32].nic.mac1609_4 TooLittleTime 0
scalar Scenario.node[32].nic.mac1609_4 TimesIntoBackoff 860
scalar Scenario.node[32].nic.mac1609_4 SlotsBackoff 1269
scalar Scenario.node[32].nic.mac1609_4 NumInternalContention 0
scalar Scenario.node[32].nic.mac1609_4 totalBusyTime 3.969932
scalar Scenario.node[32].veinsmobility startTime 34
scalar Scenario.node[32].veinsmobility totalTime 85
scalar Scenario.node[32].veinsmobility stopTime 120
scalar Scenario.node[32].veinsmobility minSpeed 2.9239650803305
scalar Scenario.node[32].veinsmobility maxSpeed 8.3295673649083
scalar Scenario.node[32].veinsmobility totalDistance 573.23857242854
scalar Scenario.node[32].veinsmobility totalCO2Emission 182.90726155562
scalar Scenario.node[59].appl generatedWSMs 0
scalar Scenario.node[59].appl receivedWSMs 18
scalar Scenario.node[59].appl generatedBSMs 610
scalar Scenario.node[59].appl receivedBSMs 26220
scalar Scenario.node[59].appl generatedWSAs 0
scalar Scenario.node[59].appl receivedWSAs 0
scalar Scenario.node[59].nic.phy80211p busyTime 0.044892721311477
scalar Scenario.node[59].nic.mac1609_4 ReceivedUnicastPackets 0
scalar Scenario.node[59].nic.mac1609_4 ReceivedBroadcasts 26238
scalar Scenario.node[59].nic.mac1609_4 SentPackets 610
scalar Scenario.node[59].nic.mac1609_4 SentAcknowledgements 0
scalar Scenario.node[59].nic.mac1609_4 SNIRLostPackets 65
scalar Scenario.node[59].nic.mac1609_4 RXTXLostPackets 0
scalar Scenario.node[59].nic.mac1609_4 TotalLostPackets 65
scalar Scenario.node[59].nic.mac1609_4 DroppedPacketsInMac 0
scalar Scenario.node[59].nic.mac1609_4 TooLittleTime 0
scalar Scenario.node[59].nic.mac1609_4 TimesIntoBackoff 610
scalar Scenario.node[59].nic.mac1609_4 SlotsBackoff 929
scalar Scenario.node[59].nic.mac1609_4 NumInternalContention 0
scalar Scenario.node[59].nic.mac1609_4 totalBusyTime 2.79869
scalar Scenario.node[59].veinsmobility startTime 60
scalar Scenario.node[59].veinsmobility totalTime 60
scalar Scenario.node[59].veinsmobility stopTime 121
scalar Scenario.node[59].veinsmobility minSpeed 3.2975909643394
scalar Scenario.node[59].veinsmobility maxSpeed 8.3295399069134
scalar Scenario.node[59].veinsmobility totalDistance 451.71809474411
scalar Scenario.node[59].veinsmobility totalCO2Emission 116.60620253227
scalar Scenario.node[16].appl generatedWSMs 1
scalar Scenario.node[16].appl receivedWSMs 27
scalar Scenario.node[16].appl generatedBSMs 1080
scalar Scenario.node[16].appl receivedBSMs 42345
scalar Scenario.node[16].appl generatedWSAs 0
scalar Scenario.node[16].appl receivedWSAs 0
scalar Scenario.node[16].nic.phy80211p busyTime 0.041009703703704
scalar Scenario.node[16].nic.mac1609_4 ReceivedUnicastPackets 0
scalar Scenario.node[16].nic.mac1609_4 ReceivedBroadcasts 42372
scalar Scenario.node[16].nic.mac1609_4 SentPackets 1081
scalar Scenario.node[16].nic.mac1609_4 SentAcknowledgements 0
scalar Scenario.node[16].nic.mac1609_4 SNIRLostPackets 167
scalar Scenario.node[16].nic.mac1609_4 RXTXLostPackets 1
scalar Scenario.node[16].nic.mac1609_4 TotalLostPackets 168
scalar Scenario.node[16].nic.mac1609_4 DroppedPacketsInMac 0
scalar Scenario.node[16].nic.mac1609_4 TooLittleTime 0
scalar Scenario.node[16].nic.mac1609_4 TimesIntoBackoff 1081
scalar Scenario.node[16].nic.mac1609_4 SlotsBackoff 1618
scalar Scenario.node[16].nic.mac1609_4 NumInternalContention 0
scalar Scenario.node[16].nic.mac1609_4 totalBusyTime 4.529097
scalar Scenario.node[16].veinsmobility startTime 17
scalar Scenario.node[16].veinsmobility totalTime 107
scalar Scenario.node[16].veinsmobility stopTime 125
scalar Scenario.node[16].veinsmobility minSpeed 0
scalar Scenario.node[16].veinsmobility maxSpeed 13.693152577956
scalar Scenario.node[16].veinsmobility totalDistance 649.44967416809
scalar Scenario.node[16].veinsmobility totalCO2Emission 219.66685291132
scalar Scenario.node[67].appl generatedWSMs 1
scalar Scenario.node[67].appl receivedWSMs 11
scalar Scenario.node[67].appl generatedBSMs 570
scalar Scenario.node[67].appl receivedBSMs 22330
scalar Scenario.node[67].appl generatedWSAs 0
scalar Scenario.node[67].appl receivedWSAs 0
scalar Scenario.node[67].nic.phy80211p busyTime 0.040807578947378
scalar Scenario.node[67].nic.mac1609_4 ReceivedUnicastPackets 0
scalar Scenario.node[67].nic.mac1609_4 ReceivedBroadcasts 22341
scalar Scenario.node[67].nic.mac1609_4 SentPackets 571
scalar Scenario.node[67].nic.mac1609_4 SentAcknowledgements 0
scalar Scenario.node[67].nic.mac1609_4 SNIRLostPackets 5
scalar Scenario.node[67].nic.mac1609_4 RXTXLostPackets 0
scalar Scenario.node[67].nic.mac1609_4 TotalLostPackets 5
scalar Scenario.node[67].nic.mac1609_4 DroppedPacketsInMac 0
scalar Scenario.node[67].nic.mac1609_4 TooLittleTime 0
scalar Scenario.node[67].nic.mac1609_4 TimesIntoBackoff 571
scalar Scenario.node[67].nic.mac1609_4 SlotsBackoff 822
scalar Scenario.node[67].nic.mac1609_4 NumInternalContention 0
scalar Scenario.node[67].nic.mac1609_4 totalBusyTime 2.385419
scalar Scenario.node[67].veinsmobility startTime 69
scalar Scenario.node[67].veinsmobility totalTime 56
scalar Scenario.node[67].veinsmobility stopTime 126
scalar Scenario.node[67].veinsmobility minSpeed 0
scalar Scenario.node[67].veinsmobility maxSpeed 13.767864135837
scalar Scenario.node[67].veinsmobility totalDistance 353.3113587218
scalar Scenario.node[67].veinsmobility totalCO2Emission 123.59531992911
scalar Scenario.node[50].appl generatedWSMs 0
scalar Scenario.node[50].appl receivedWSMs 22
scalar Scenario.node[50].appl generatedBSMs 760
scalar Scenario.node[50].appl receivedBSMs 32145
scalar Scenario.node[50].appl generatedWSAs 0
scalar Scenario.node[50].appl receivedWSAs 0
scalar Scenario.node[50].nic.phy80211p busyTime 0.044215578947361
scalar Scenario.node[50].nic.mac1609_4 ReceivedUnicastPackets 0
scalar Scenario.node[50].nic.mac1609_4 ReceivedBroadcasts 32167
scalar Scenario.node[50].nic.mac1609_4 SentPackets 760
scalar Scenario.node[50].nic.mac1609_4 SentAcknowledgements 0
scalar Scenario.node[50].nic.mac1609_4 SNIRLostPackets 105
scalar Scenario.node[50].nic.mac1609_4 RXTXLostPackets 0
scalar Scenario.node[50].nic.mac1609_4 TotalLostPackets 105
scalar Scenario.node[50].nic.mac1609_4 DroppedPacketsInMac 0
scalar Scenario.node[50].nic.mac1609_4 TooLittleTime 0
scalar Scenario.node[50].nic.mac1609_4 TimesIntoBackoff 760
scalar Scenario.node[50].nic.mac1609_4 SlotsBackoff 1118
scalar Scenario.node[50].nic.mac1609_4 NumInternalContention 0
scalar Scenario.node[50].nic.mac1609_4 totalBusyTime 3.431488
scalar Scenario.node[50].veinsmobility startTime 51
scalar Scenario.node[50].veinsmobility totalTime 75
scalar Scenario.node[50].veinsmobility stopTime 127
scalar Scenario.node[50].veinsmobility minSpeed 2.5644533741095
scalar Scenario.node[50].veinsmobility maxSpeed 13.076006996789
scalar Scenario.node[50].veinsmobility totalDistance 526.82813410136
scalar Scenario.node[50].veinsmobility totalCO2Emission 181.0137113512
scalar Scenario.node[12].appl generatedWSMs 1
scalar Scenario.node[12].appl receivedWSMs 29
scalar Scenario.node[12].appl generatedBSMs 1170
scalar Scenario.node[12].appl receivedBSMs 43839
scalar Scenario.node[12].appl generatedWSAs 0
scalar Scenario.node[12].appl receivedWSAs 0
scalar Scenario.node[12].nic.phy80211p busyTime 0.03920820512821
scalar Scenario.node[12].nic.mac1609_4 ReceivedUnicastPackets 0
scalar Scenario.node[12].nic.mac1609_4 ReceivedBroadcasts 43868
scalar Scenario.node[12].nic.mac1609_4 SentPackets 1171
scalar Scenario.node[12].nic.mac1609_4 SentAcknowledgements 0
scalar Scenario.node[12].nic.mac1609_4 SNIRLostPackets 192
scalar Scenario.node[12].nic.mac1609_4 RXTXLostPackets 0
scalar Scenario.node[12].nic.mac1609_4 TotalLostPackets 192
scalar Scenario.node[12].nic.mac1609_4 DroppedPacketsInMac 0
scalar Scenario.node[12].nic.mac1609_4 TooLittleTime 0
[...]
scalar Scenario.node[52].veinsmobility totalTime 85
scalar Scenario.node[52].veinsmobility stopTime 139
scalar Scenario.node[52].veinsmobility minSpeed 0
scalar Scenario.node[52].veinsmobility maxSpeed 8.3296580131911
scalar Scenario.node[52].veinsmobility totalDistance 522.41842255039
scalar Scenario.node[52].veinsmobility totalCO2Emission 162.49989948496
scalar Scenario.node[37].appl generatedWSMs 1
scalar Scenario.node[37].appl receivedWSMs 25
scalar Scenario.node[37].appl generatedBSMs 1000
scalar Scenario.node[37].appl receivedBSMs 38890
scalar Scenario.node[37].appl generatedWSAs 0
scalar Scenario.node[37].appl receivedWSAs 0
scalar Scenario.node[37].nic.phy80211p busyTime 0.040713999999989
scalar Scenario.node[37].nic.mac1609_4 ReceivedUnicastPackets 0
scalar Scenario.node[37].nic.mac1609_4 ReceivedBroadcasts 38915
scalar Scenario.node[37].nic.mac1609_4 SentPackets 1001
scalar Scenario.node[37].nic.mac1609_4 SentAcknowledgements 0
scalar Scenario.node[37].nic.mac1609_4 SNIRLostPackets 190
scalar Scenario.node[37].nic.mac1609_4 RXTXLostPackets 1
scalar Scenario.node[37].nic.mac1609_4 TotalLostPackets 191
scalar Scenario.node[37].nic.mac1609_4 DroppedPacketsInMac 0
scalar Scenario.node[37].nic.mac1609_4 TooLittleTime 0
scalar Scenario.node[37].nic.mac1609_4 TimesIntoBackoff 1001
scalar Scenario.node[37].nic.mac1609_4 SlotsBackoff 1525
scalar Scenario.node[37].nic.mac1609_4 NumInternalContention 0
scalar Scenario.node[37].nic.mac1609_4 totalBusyTime 4.163881
scalar Scenario.node[37].veinsmobility startTime 39
scalar Scenario.node[37].veinsmobility totalTime 99
scalar Scenario.node[37].veinsmobility stopTime 139
scalar Scenario.node[37].veinsmobility minSpeed 0
scalar Scenario.node[37].veinsmobility maxSpeed 8.3287694938364
scalar Scenario.node[37].veinsmobility totalDistance 580.09887352468
scalar Scenario.node[37].veinsmobility totalCO2Emission 188.80722953961
scalar Scenario.node[14].appl generatedWSMs 1
scalar Scenario.node[14].appl receivedWSMs 28
scalar Scenario.node[14].appl generatedBSMs 1350
scalar Scenario.node[14].appl receivedBSMs 45957
scalar Scenario.node[14].appl generatedWSAs 0
scalar Scenario.node[14].appl receivedWSAs 0
scalar Scenario.node[14].nic.phy80211p busyTime 0.03563674074075
scalar Scenario.node[14].nic.mac1609_4 ReceivedUnicastPackets 0
scalar Scenario.node[14].nic.mac1609_4 ReceivedBroadcasts 45985
scalar Scenario.node[14].nic.mac1609_4 SentPackets 1351
scalar Scenario.node[14].nic.mac1609_4 SentAcknowledgements 0
scalar Scenario.node[14].nic.mac1609_4 SNIRLostPackets 225
scalar Scenario.node[14].nic.mac1609_4 RXTXLostPackets 0
scalar Scenario.node[14].nic.mac1609_4 TotalLostPackets 225
scalar Scenario.node[14].nic.mac1609_4 DroppedPacketsInMac 0
scalar Scenario.node[14].nic.mac1609_4 TooLittleTime 0
scalar Scenario.node[14].nic.mac1609_4 TimesIntoBackoff 1351
scalar Scenario.node[14].nic.mac1609_4 SlotsBackoff 2032
scalar Scenario.node[14].nic.mac1609_4 NumInternalContention 0
scalar Scenario.node[14].nic.mac1609_4 totalBusyTime 4.939127241847
scalar Scenario.node[14].veinsmobility startTime 15
scalar Scenario.node[14].veinsmobility totalTime 134
scalar Scenario.node[14].veinsmobility stopTime 150
scalar Scenario.node[14].veinsmobility minSpeed 0
scalar Scenario.node[14].veinsmobility maxSpeed 13.881474328202
scalar Scenario.node[14].veinsmobility totalDistance 758.17800063987
scalar Scenario.node[14].veinsmobility totalCO2Emission 242.30268192435
scalar Scenario.node[29].appl generatedWSMs 1
scalar Scenario.node[29].appl receivedWSMs 27
scalar Scenario.node[29].appl generatedBSMs 1230
scalar Scenario.node[29].appl receivedBSMs 43114
scalar Scenario.node[29].appl generatedWSAs 0
scalar Scenario.node[29].appl receivedWSAs 0
scalar Scenario.node[29].nic.phy80211p busyTime 0.036686829268295
scalar Scenario.node[29].nic.mac1609_4 ReceivedUnicastPackets 0
scalar Scenario.node[29].nic.mac1609_4 ReceivedBroadcasts 43141
scalar Scenario.node[29].nic.mac1609_4 SentPackets 1231
scalar Scenario.node[29].nic.mac1609_4 SentAcknowledgements 0
scalar Scenario.node[29].nic.mac1609_4 SNIRLostPackets 199
scalar Scenario.node[29].nic.mac1609_4 RXTXLostPackets 0
scalar Scenario.node[29].nic.mac1609_4 TotalLostPackets 199
scalar Scenario.node[29].nic.mac1609_4 DroppedPacketsInMac 0
scalar Scenario.node[29].nic.mac1609_4 TooLittleTime 0
scalar Scenario.node[29].nic.mac1609_4 TimesIntoBackoff 1231
scalar Scenario.node[29].nic.mac1609_4 SlotsBackoff 1885
scalar Scenario.node[29].nic.mac1609_4 NumInternalContention 0
scalar Scenario.node[29].nic.mac1609_4 totalBusyTime 4.628047
scalar Scenario.node[29].veinsmobility startTime 30
scalar Scenario.node[29].veinsmobility totalTime 122
scalar Scenario.node[29].veinsmobility stopTime 153
scalar Scenario.node[29].veinsmobility minSpeed 0
scalar Scenario.node[29].veinsmobility maxSpeed 12.656788191872
scalar Scenario.node[29].veinsmobility totalDistance 403.86145198599
scalar Scenario.node[29].veinsmobility totalCO2Emission 193.98946258572
scalar Scenario.node[61].appl generatedWSMs 0
scalar Scenario.node[61].appl receivedWSMs 15
scalar Scenario.node[61].appl generatedBSMs 930
scalar Scenario.node[61].appl receivedBSMs 29804
scalar Scenario.node[61].appl generatedWSAs 0
scalar Scenario.node[61].appl receivedWSAs 0
scalar Scenario.node[61].nic.phy80211p busyTime 0.033433032258061
scalar Scenario.node[61].nic.mac1609_4 ReceivedUnicastPackets 0
scalar Scenario.node[61].nic.mac1609_4 ReceivedBroadcasts 29819
scalar Scenario.node[61].nic.mac1609_4 SentPackets 930
scalar Scenario.node[61].nic.mac1609_4 SentAcknowledgements 0
scalar Scenario.node[61].nic.mac1609_4 SNIRLostPackets 52
scalar Scenario.node[61].nic.mac1609_4 RXTXLostPackets 0
scalar Scenario.node[61].nic.mac1609_4 TotalLostPackets 52
scalar Scenario.node[61].nic.mac1609_4 DroppedPacketsInMac 0
scalar Scenario.node[61].nic.mac1609_4 TooLittleTime 0
scalar Scenario.node[61].nic.mac1609_4 TimesIntoBackoff 930
scalar Scenario.node[61].nic.mac1609_4 SlotsBackoff 1396
scalar Scenario.node[61].nic.mac1609_4 NumInternalContention 0
scalar Scenario.node[61].nic.mac1609_4 totalBusyTime 3.203834
scalar Scenario.node[61].veinsmobility startTime 62
scalar Scenario.node[61].veinsmobility totalTime 92
scalar Scenario.node[61].veinsmobility stopTime 155
scalar Scenario.node[61].veinsmobility minSpeed 3.6044009588327
scalar Scenario.node[61].veinsmobility maxSpeed 8.3290935148112
scalar Scenario.node[61].veinsmobility totalDistance 699.36677031861
scalar Scenario.node[61].veinsmobility totalCO2Emission 178.55791626172
scalar Scenario.node[63].appl generatedWSMs 1
scalar Scenario.node[63].appl receivedWSMs 12
scalar Scenario.node[63].appl generatedBSMs 910
scalar Scenario.node[63].appl receivedBSMs 28208
scalar Scenario.node[63].appl generatedWSAs 0
scalar Scenario.node[63].appl receivedWSAs 0
scalar Scenario.node[63].nic.phy80211p busyTime 0.032308747252746
scalar Scenario.node[63].nic.mac1609_4 ReceivedUnicastPackets 0
scalar Scenario.node[63].nic.mac1609_4 ReceivedBroadcasts 28220
scalar Scenario.node[63].nic.mac1609_4 SentPackets 911
scalar Scenario.node[63].nic.mac1609_4 SentAcknowledgements 0
scalar Scenario.node[63].nic.mac1609_4 SNIRLostPackets 28
scalar Scenario.node[63].nic.mac1609_4 RXTXLostPackets 0
scalar Scenario.node[63].nic.mac1609_4 TotalLostPackets 28
scalar Scenario.node[63].nic.mac1609_4 DroppedPacketsInMac 0
scalar Scenario.node[63].nic.mac1609_4 TooLittleTime 0
scalar Scenario.node[63].nic.mac1609_4 TimesIntoBackoff 911
scalar Scenario.node[63].nic.mac1609_4 SlotsBackoff 1412
scalar Scenario.node[63].nic.mac1609_4 NumInternalContention 0
scalar Scenario.node[63].nic.mac1609_4 totalBusyTime 3.034039
scalar Scenario.node[63].veinsmobility startTime 65
scalar Scenario.node[63].veinsmobility totalTime 90
scalar Scenario.node[63].veinsmobility stopTime 156
scalar Scenario.node[63].veinsmobility minSpeed 0
scalar Scenario.node[63].veinsmobility maxSpeed 12.831498057107
scalar Scenario.node[63].veinsmobility totalDistance 306.94414860205
scalar Scenario.node[63].veinsmobility totalCO2Emission 151.56439836385
scalar Scenario.node[66].appl generatedWSMs 1
scalar Scenario.node[66].appl receivedWSMs 12
scalar Scenario.node[66].appl generatedBSMs 880
scalar Scenario.node[66].appl receivedBSMs 26550
scalar Scenario.node[66].appl generatedWSAs 0
scalar Scenario.node[66].appl receivedWSAs 0
scalar Scenario.node[66].nic.phy80211p busyTime 0.031416818181819
scalar Scenario.node[66].nic.mac1609_4 ReceivedUnicastPackets 0
scalar Scenario.node[66].nic.mac1609_4 ReceivedBroadcasts 26562
scalar Scenario.node[66].nic.mac1609_4 SentPackets 881
scalar Scenario.node[66].nic.mac1609_4 SentAcknowledgements 0
scalar Scenario.node[66].nic.mac1609_4 SNIRLostPackets 3
scalar Scenario.node[66].nic.mac1609_4 RXTXLostPackets 1
scalar Scenario.node[66].nic.mac1609_4 TotalLostPackets 4
scalar Scenario.node[66].nic.mac1609_4 DroppedPacketsInMac 0
scalar Scenario.node[66].nic.mac1609_4 TooLittleTime 0
scalar Scenario.node[66].nic.mac1609_4 TimesIntoBackoff 881
scalar Scenario.node[66].nic.mac1609_4 SlotsBackoff 1340
scalar Scenario.node[66].nic.mac1609_4 NumInternalContention 0
scalar Scenario.node[66].nic.mac1609_4 totalBusyTime 2.856849
scalar Scenario.node[66].veinsmobility startTime 68
scalar Scenario.node[66].veinsmobility totalTime 87
scalar Scenario.node[66].veinsmobility stopTime 156
scalar Scenario.node[66].veinsmobility minSpeed 0
scalar Scenario.node[66].veinsmobility maxSpeed 13.872739260858
scalar Scenario.node[66].veinsmobility totalDistance 535.0724552245
scalar Scenario.node[66].veinsmobility totalCO2Emission 164.0407217362
scalar Scenario.node[43].appl generatedWSMs 1
scalar Scenario.node[43].appl receivedWSMs 23
scalar Scenario.node[43].appl generatedBSMs 1140
scalar Scenario.node[43].appl receivedBSMs 38736
scalar Scenario.node[43].appl generatedWSAs 0
scalar Scenario.node[43].appl receivedWSAs 0
scalar Scenario.node[43].nic.phy80211p busyTime 0.035549824561393
scalar Scenario.node[43].nic.mac1609_4 ReceivedUnicastPackets 0
scalar Scenario.node[43].nic.mac1609_4 ReceivedBroadcasts 38759
scalar Scenario.node[43].nic.mac1609_4 SentPackets 1141
scalar Scenario.node[43].nic.mac1609_4 SentAcknowledgements 0
scalar Scenario.node[43].nic.mac1609_4 SNIRLostPackets 166
scalar Scenario.node[43].nic.mac1609_4 RXTXLostPackets 0
scalar Scenario.node[43].nic.mac1609_4 TotalLostPackets 166
scalar Scenario.node[43].nic.mac1609_4 DroppedPacketsInMac 0
scalar Scenario.node[43].nic.mac1609_4 TooLittleTime 0
scalar Scenario.node[43].nic.mac1609_4 TimesIntoBackoff 1141
scalar Scenario.node[43].nic.mac1609_4 SlotsBackoff 1736
scalar Scenario.node[43].nic.mac1609_4 NumInternalContention 0
scalar Scenario.node[43].nic.mac1609_4 totalBusyTime 4.161397
scalar Scenario.node[43].veinsmobility startTime 44
scalar Scenario.node[43].veinsmobility totalTime 113
scalar Scenario.node[43].veinsmobility stopTime 158
scalar Scenario.node[43].veinsmobility minSpeed 0
scalar Scenario.node[43].veinsmobility maxSpeed 8.3299190259702
scalar Scenario.node[43].veinsmobility totalDistance 598.51019236051
scalar Scenario.node[43].veinsmobility totalCO2Emission 207.16170319049
scalar Scenario.node[26].appl generatedWSMs 1
scalar Scenario.node[26].appl receivedWSMs 28
scalar Scenario.node[26].appl generatedBSMs 1310
scalar Scenario.node[26].appl receivedBSMs 44269
scalar Scenario.node[26].appl generatedWSAs 0
scalar Scenario.node[26].appl receivedWSAs 0
scalar Scenario.node[26].nic.phy80211p busyTime 0.035349679389318
scalar Scenario.node[26].nic.mac1609_4 ReceivedUnicastPackets 0
scalar Scenario.node[26].nic.mac1609_4 ReceivedBroadcasts 44297
scalar Scenario.node[26].nic.mac1609_4 SentPackets 1311
scalar Scenario.node[26].nic.mac1609_4 SentAcknowledgements 0
scalar Scenario.node[26].nic.mac1609_4 SNIRLostPackets 182
scalar Scenario.node[26].nic.mac1609_4 RXTXLostPackets 1
scalar Scenario.node[26].nic.mac1609_4 TotalLostPackets 183
scalar Scenario.node[26].nic.mac1609_4 DroppedPacketsInMac 0
scalar Scenario.node[26].nic.mac1609_4 TooLittleTime 0
scalar Scenario.node[26].nic.mac1609_4 TimesIntoBackoff 1311
scalar Scenario.node[26].nic.mac1609_4 SlotsBackoff 1950
scalar Scenario.node[26].nic.mac1609_4 NumInternalContention 0
scalar Scenario.node[26].nic.mac1609_4 totalBusyTime 4.755007
scalar Scenario.node[26].veinsmobility startTime 27
scalar Scenario.node[26].veinsmobility totalTime 130
scalar Scenario.node[26].veinsmobility stopTime 158
scalar Scenario.node[26].veinsmobility minSpeed 0
scalar Scenario.node[26].veinsmobility maxSpeed 8.3220323429676
scalar Scenario.node[26].veinsmobility totalDistance 671.55397911042
scalar Scenario.node[26].veinsmobility totalCO2Emission 238.00301122153
scalar Scenario.node[27].appl generatedWSMs 1
scalar Scenario.node[27].appl receivedWSMs 28
scalar Scenario.node[27].appl generatedBSMs 1330
scalar Scenario.node[27].appl receivedBSMs 44057
scalar Scenario.node[27].appl generatedWSAs 0
scalar Scenario.node[27].appl receivedWSAs 0
scalar Scenario.node[27].nic.phy80211p busyTime 0.034683428571433
scalar Scenario.node[27].nic.mac1609_4 ReceivedUnicastPackets 0
scalar Scenario.node[27].nic.mac1609_4 ReceivedBroadcasts 44085
scalar Scenario.node[27].nic.mac1609_4 SentPackets 1331
scalar Scenario.node[27].nic.mac1609_4 SentAcknowledgements 0
scalar Scenario.node[27].nic.mac1609_4 SNIRLostPackets 223
scalar Scenario.node[27].nic.mac1609_4 RXTXLostPackets 2
scalar Scenario.node[27].nic.mac1609_4 TotalLostPackets 225
scalar Scenario.node[27].nic.mac1609_4 DroppedPacketsInMac 0
scalar Scenario.node[27].nic.mac1609_4 TooLittleTime 0
scalar Scenario.node[27].nic.mac1609_4 TimesIntoBackoff 1331
scalar Scenario.node[27].nic.mac1609_4 SlotsBackoff 1998
scalar Scenario.node[27].nic.mac1609_4 NumInternalContention 0
scalar Scenario.node[27].nic.mac1609_4 totalBusyTime 4.739427341206
scalar Scenario.node[27].veinsmobility startTime 28
scalar Scenario.node[27].veinsmobility totalTime 132
scalar Scenario.node[27].veinsmobility stopTime 161
scalar Scenario.node[27].veinsmobility minSpeed 0
scalar Scenario.node[27].veinsmobility maxSpeed 13.854481478625
scalar Scenario.node[27].veinsmobility totalDistance 774.18472358769
scalar Scenario.node[27].veinsmobility totalCO2Emission 269.57613158011
scalar Scenario.node[53].appl generatedWSMs 1
scalar Scenario.node[53].appl receivedWSMs 17
scalar Scenario.node[53].appl generatedBSMs 1160
scalar Scenario.node[53].appl receivedBSMs 34505
scalar Scenario.node[53].appl generatedWSAs 0
scalar Scenario.node[53].appl receivedWSAs 0
scalar Scenario.node[53].nic.phy80211p busyTime 0.031087655172406
scalar Scenario.node[53].nic.mac1609_4 ReceivedUnicastPackets 0
scalar Scenario.node[53].nic.mac1609_4 ReceivedBroadcasts 34522
scalar Scenario.node[53].nic.mac1609_4 SentPackets 1161
scalar Scenario.node[53].nic.mac1609_4 SentAcknowledgements 0
scalar Scenario.node[53].nic.mac1609_4 SNIRLostPackets 117
scalar Scenario.node[53].nic.mac1609_4 RXTXLostPackets 0
scalar Scenario.node[53].nic.mac1609_4 TotalLostPackets 117
scalar Scenario.node[53].nic.mac1609_4 DroppedPacketsInMac 0
scalar Scenario.node[53].nic.mac1609_4 TooLittleTime 0
scalar Scenario.node[53].nic.mac1609_4 TimesIntoBackoff 1161
scalar Scenario.node[53].nic.mac1609_4 SlotsBackoff 1641
scalar Scenario.node[53].nic.mac1609_4 NumInternalContention 0
scalar Scenario.node[53].nic.mac1609_4 totalBusyTime 3.720961158368
scalar Scenario.node[53].veinsmobility startTime 54
scalar Scenario.node[53].veinsmobility totalTime 115
scalar Scenario.node[53].veinsmobility stopTime 170
scalar Scenario.node[53].veinsmobility minSpeed 0
scalar Scenario.node[53].veinsmobility maxSpeed 13.860629039046
scalar Scenario.node[53].veinsmobility totalDistance 609.73666890873
scalar Scenario.node[53].veinsmobility totalCO2Emission 216.4956364191
scalar Scenario.node[49].appl generatedWSMs 1
scalar Scenario.node[49].appl receivedWSMs 18
scalar Scenario.node[49].appl generatedBSMs 1300
scalar Scenario.node[49].appl receivedBSMs 36514
scalar Scenario.node[49].appl generatedWSAs 0
scalar Scenario.node[49].appl receivedWSAs 0
scalar Scenario.node[49].nic.phy80211p busyTime 0.029375323076914
scalar Scenario.node[49].nic.mac1609_4 ReceivedUnicastPackets 0
scalar Scenario.node[49].nic.mac1609_4 ReceivedBroadcasts 36532
scalar Scenario.node[49].nic.mac1609_4 SentPackets 1301
scalar Scenario.node[49].nic.mac1609_4 SentAcknowledgements 0
scalar Scenario.node[49].nic.mac1609_4 SNIRLostPackets 149
scalar Scenario.node[49].nic.mac1609_4 RXTXLostPackets 0
scalar Scenario.node[49].nic.mac1609_4 TotalLostPackets 149
scalar Scenario.node[49].nic.mac1609_4 DroppedPacketsInMac 0
scalar Scenario.node[49].nic.mac1609_4 TooLittleTime 0
scalar Scenario.node[49].nic.mac1609_4 TimesIntoBackoff 1301
scalar Scenario.node[49].nic.mac1609_4 SlotsBackoff 1929
scalar Scenario.node[49].nic.mac1609_4 NumInternalContention 0
scalar Scenario.node[49].nic.mac1609_4 totalBusyTime 3.946829
scalar Scenario.node[49].veinsmobility startTime 50
scalar Scenario.node[49].veinsmobility totalTime 130
scalar Scenario.node[49].veinsmobility stopTime 180
scalar Scenario.node[49].veinsmobility minSpeed 0
scalar Scenario.node[49].veinsmobility maxSpeed 13.858464645483
scalar Scenario.node[49].veinsmobility totalDistance 531.77407155196
scalar Scenario.node[49].veinsmobility totalCO2Emission 204.20449660569
scalar Scenario.node[62].appl generatedWSMs 1
scalar Scenario.node[62].appl receivedWSMs 15
scalar Scenario.node[62].appl generatedBSMs 1160
scalar Scenario.node[62].appl receivedBSMs 29233
scalar Scenario.node[62].appl generatedWSAs 0
scalar Scenario.node[62].appl receivedWSAs 0
scalar Scenario.node[62].nic.phy80211p busyTime 0.026269103448274
scalar Scenario.node[62].nic.mac1609_4 ReceivedUnicastPackets 0
scalar Scenario.node[62].nic.mac1609_4 ReceivedBroadcasts 29248
scalar Scenario.node[62].nic.mac1609_4 SentPackets 1161
scalar Scenario.node[62].nic.mac1609_4 SentAcknowledgements 0
scalar Scenario.node[62].nic.mac1609_4 SNIRLostPackets 30
scalar Scenario.node[62].nic.mac1609_4 RXTXLostPackets 1
scalar Scenario.node[62].nic.mac1609_4 TotalLostPackets 31
scalar Scenario.node[62].nic.mac1609_4 DroppedPacketsInMac 0
scalar Scenario.node[62].nic.mac1609_4 TooLittleTime 0
scalar Scenario.node[62].nic.mac1609_4 TimesIntoBackoff 1161
scalar Scenario.node[62].nic.mac1609_4 SlotsBackoff 1728
scalar Scenario.node[62].nic.mac1609_4 NumInternalContention 0
scalar Scenario.node[62].nic.mac1609_4 totalBusyTime 3.167121
scalar Scenario.node[62].veinsmobility startTime 64
scalar Scenario.node[62].veinsmobility totalTime 116
scalar Scenario.node[62].veinsmobility stopTime 180
scalar Scenario.node[62].veinsmobility minSpeed 0
scalar Scenario.node[62].veinsmobility maxSpeed 13.853456150859
scalar Scenario.node[62].veinsmobility totalDistance 601.9876745839
scalar Scenario.node[62].veinsmobility totalCO2Emission 215.49667249339
scalar Scenario.manager roiArea 0
scalar Scenario.rsu[0].appl generatedWSMs 0
scalar Scenario.rsu[0].appl receivedWSMs 0
scalar Scenario.rsu[0].appl generatedBSMs 0
scalar Scenario.rsu[0].appl receivedBSMs 0
scalar Scenario.rsu[0].appl generatedWSAs 0
scalar Scenario.rsu[0].appl receivedWSAs 0
scalar Scenario.rsu[0].nic.phy80211p busyTime 0.028849288888902
scalar Scenario.rsu[0].nic.mac1609_4 ReceivedUnicastPackets 0
scalar Scenario.rsu[0].nic.mac1609_4 ReceivedBroadcasts 49668
scalar Scenario.rsu[0].nic.mac1609_4 SentPackets 0
scalar Scenario.rsu[0].nic.mac1609_4 SentAcknowledgements 0
scalar Scenario.rsu[0].nic.mac1609_4 SNIRLostPackets 213
scalar Scenario.rsu[0].nic.mac1609_4 RXTXLostPackets 0
scalar Scenario.rsu[0].nic.mac1609_4 TotalLostPackets 213
scalar Scenario.rsu[0].nic.mac1609_4 DroppedPacketsInMac 0
scalar Scenario.rsu[0].nic.mac1609_4 TooLittleTime 0
scalar Scenario.rsu[0].nic.mac1609_4 TimesIntoBackoff 0
scalar Scenario.rsu[0].nic.mac1609_4 SlotsBackoff 0
scalar Scenario.rsu[0].nic.mac1609_4 NumInternalContention 0
scalar Scenario.rsu[0].nic.mac1609_4 totalBusyTime 5.179056

